<NUMBER OF ZONES> 132											
<NUMBER OF NODES> 28290											
<FIRST THRU NODE> 1											
<NUMBER OF LINKS> 56130
<END OF METADATA>											
											
											
~	Init Node	Term Node	capacity	length	free flow time	B	power	SpeedLimit	Toll	Type	;
	1	3600676	134400.0054	17.26826038	0.000154249	1	4	0	0	1	;
	2	4200404	134400.0054	5.037246904	4.49954E-05	1	4	0	0	1	;
	4	3600665	134400.0054	10.863072	6.62262E-05	1	4	0	0	1	;
	4	4201082	134400.0054	7.869691945	0.002417204	1	4	0	0	1	;
	6	3600267	112000	7.435169096	0.002283697	1	4	0	0	1	;
	6	4200737	112000	4.087733699	0.003521414	1	4	0	0	1	;
	7	3600199	156799.9973	26.79557699	0.000163358	1	4	0	0	1	;
	8	1800246	112000	18.41089468	0.006686927	1	4	0	0	1	;
	9	3900003	537600.0213	22.36988099	9.17853E-05	1	4	0	0	1	;
	10	3900507	156799.9973	17.26826038	0.000177642	1	4	0	0	1	;
	11	5100068	112000	6.260348329	0.001310958	1	4	0	0	1	;
	12	2100140	537600.0213	2.800258575	0.002663919	1	4	0	0	1	;
	13	1800069	134400.0054	5.343021973	4.77267E-05	1	4	0	0	1	;
	17	2400082	537600.0213	0.386242551	0.001388078	1	4	0	0	1	;
	19	5100186	537600.0213	12.3436686	0.000942053	1	4	0	0	1	;
	20	5100462	112000	5.825825096	0.000107798	1	4	0	0	1	;
	21	1800178	537600.0213	10.04230619	4.12043E-05	1	4	0	0	1	;
	22	4201045	537600.0213	6.115507123	0.003141835	1	4	0	0	1	;
	23	24	537600.0213	0.498896644	2.04701E-06	1	4	0	0	1	;
	24	5400215	537600.0213	2.253081562	0.000221948	1	4	0	0	1	;
	25	2100156	112000	10.5251097	0.00015487	1	4	0	0	1	;
	25	5100179	112000	1.496689932	2.20228E-05	1	4	0	0	1	;
	26	1800311	492800.0108	2.735884877	4.02567E-05	1	4	0	0	1	;
	27	1300400	134400.0054	22.14457381	0.000135003	1	4	0	0	1	;
	33	1300012	112000	14.85424438	0.007309131	1	4	0	0	1	;
	34	1300138	537600.0213	5.487863178	0.003534961	1	4	0	0	1	;
	35	1300135	112000	6.212067671	0.00118088	1	4	0	0	1	;
	37	593	537600.0213	1.142634205	4.68831E-06	1	4	0	0	1	;
	39	1300242	156799.9973	25.37935562	0.000104133	1	4	0	0	1	;
	41	2200257	112000	7.370795397	0.001066614	1	4	0	0	1	;
	41	4800159	112000	27.19791299	0.002677326	1	4	0	0	1	;
	43	500255	156799.9973	12.07008	0.0038399	1	4	0	0	1	;
	44	4000247	112000	35.21244537	0.004306704	1	4	0	0	1	;
	45	4700064	134400.0054	18.49136219	0.001820265	1	4	0	0	1	;
	46	4700234	112000	0.659831034	1.22092E-05	1	4	0	0	1	;
	48	2200289	156799.9973	14.43581611	8.80073E-05	1	4	0	0	1	;
	48	4800408	156799.9973	14.58065732	0.003053259	1	4	0	0	1	;
	49	4700272	112000	0.177027839	2.60484E-06	1	4	0	0	1	;
	51	4700232	156799.9973	0.128747517	5.28261E-07	1	4	0	0	1	;
	52	53	112000	9.994026301	0.000184925	1	4	0	0	1	;
	52	42	112000	37.30459441	0.015099403	1	4	0	0	1	;
	53	1200299	112000	8.416869151	0.007074161	1	4	0	0	1	;
	54	2900444	156799.9973	5.697077699	2.33755E-05	1	4	0	0	1	;
	55	2900445	156799.9973	0.852952274	0.001030862	1	4	0	0	1	;
	55	4000038	156799.9973	34.98713819	0.000143555	1	4	0	0	1	;
	56	2900442	112000	2.365735726	3.48102E-05	1	4	0	0	1	;
	57	2900431	112000	17.15560679	0.000317439	1	4	0	0	1	;
	59	2900022	156799.9973	6.485656658	0.001075772	1	4	0	0	1	;
	61	2100172	112000	12.50460285	0.000231379	1	4	0	0	1	;
	66	2900083	112000	1.818558712	0.000578529	1	4	0	0	1	;
	68	2900408	112000	4.152107397	0.000189261	1	4	0	0	1	;
	69	2900097	156799.9973	14.03348011	8.55544E-05	1	4	0	0	1	;
	71	2900619	537600.0213	0.498896644	0.000783928	1	4	0	0	1	;
	75	1800069	112000	19.2477543	0.003192722	1	4	0	0	1	;
	76	1800077	112000	30.99596581	0.00749144	1	4	0	0	1	;
	76	3900292	112000	11.18494049	0.000206961	1	4	0	0	1	;
	77	1800578	492800.0108	0.724204781	0.000883715	1	4	0	0	1	;
	79	1900526	156799.9973	5.713171123	2.34416E-05	1	4	0	0	1	;
	82	2600717	112000	14.40362849	0.007545697	1	4	0	0	1	;
	83	2600005	156799.9973	3.266968274	0.000684089	1	4	0	0	1	;
	84	2600004	156799.9973	8.400775342	0.000155444	1	4	0	0	1	;
	86	1701769	112000	3.540556877	0.000269591	1	4	0	0	1	;
	90	1700564	492800.0108	1.416222712	5.81087E-06	1	4	0	0	1	;
	91	3100091	156799.9973	3.283061699	0.004668612	1	4	0	0	1	;
	92	1900188	112000	9.816998247	0.000155659	1	4	0	0	1	;
	93	94	112000	3.315248548	0.001341834	1	4	0	0	1	;
	95	228	112000	12.3436686	0.000181629	1	4	0	0	1	;
	95	94	112000	6.260348329	9.21167E-05	1	4	0	0	1	;
	96	1800158	112000	15.36923551	0.000284385	1	4	0	0	1	;
	97	3900498	134400.0054	1.287475219	0.000126735	1	4	0	0	1	;
	98	2600562	156799.9973	5.069433753	0.000153501	1	4	0	0	1	;
	98	3900122	112000	2.059960274	2.32142E-05	1	4	0	0	1	;
	100	2600252	112000	14.74159079	0.002133312	1	4	0	0	1	;
	102	5500296	134400.0054	8.867485808	3.63839E-05	1	4	0	0	1	;
	103	5500022	134400.0054	0.917326068	3.76386E-06	1	4	0	0	1	;
	105	5500035	134400.0054	5.858012329	0.009065951	1	4	0	0	1	;
	106	2700014	537600.0213	4.425696	4.55368E-05	1	4	0	0	1	;
	106	5500520	156799.9973	0.402336	0.001033662	1	4	0	0	1	;
	110	1900207	112000	12.79428449	0.000114285	1	4	0	0	1	;
	110	2700057	112000	10.3963623	9.28659E-05	1	4	0	0	1	;
	111	2700063	112000	2.462296274	0.001533525	1	4	0	0	1	;
	112	2700064	112000	4.313042027	2.62943E-05	1	4	0	0	1	;
	112	4600010	112000	11.90914575	0.003314421	1	4	0	0	1	;
	115	2700528	112000	16.38312241	0.002003664	1	4	0	0	1	;
	116	5500576	156799.9973	3.218688	0.004203911	1	4	0	0	1	;
	117	1900265	112000	33.61919518	0.00411184	1	4	0	0	1	;
	118	3100115	537600.0213	41.89122543	0.008772144	1	4	0	0	1	;
	118	4600134	156799.9973	0.933419493	3.82989E-06	1	4	0	0	1	;
	121	2700139	492800.0108	1.786371863	0.000762444	1	4	0	0	1	;
	122	3100201	537600.0213	34.08590641	0.000139857	1	4	0	0	1	;
	122	5600092	537600.0213	17.13951299	0.014217719	1	4	0	0	1	;
	123	3100250	112000	20.7283509	0.000383548	1	4	0	0	1	;
	125	3100335	537600.0213	12.3436686	5.0647E-05	1	4	0	0	1	;
	126	3100117	112000	1.947306301	1.73944E-05	1	4	0	0	1	;
	126	5600018	112000	21.75833162	0.009286853	1	4	0	0	1	;
	127	800298	156799.9973	2.768071726	2.47259E-05	1	4	0	0	1	;
	128	4000001	112000	32.38000263	0.004685896	1	4	0	0	1	;
	129	2000361	112000	0.692017932	1.28048E-05	1	4	0	0	1	;
	129	4000139	112000	37.93223759	0.019871552	1	4	0	0	1	;
	130	800221	156799.9973	24.89655211	0.000151781	1	4	0	0	1	;
	130	4900186	156799.9973	42.27746762	0.000257743	1	4	0	0	1	;
	131	3500153	156799.9973	3.395715671	4.99656E-05	1	4	0	0	1	;
	132	2000383	112000	5.101620603	4.55704E-05	1	4	0	0	1	;
	132	4000048	112000	23.68954411	0.000211608	1	4	0	0	1	;
	133	4800815	134400.0054	1.931212877	1.72506E-05	1	4	0	0	1	;
	134	3500135	537600.0213	1.094353932	0.000455351	1	4	0	0	1	;
	134	4801375	156799.9973	0.724204781	4.41508E-06	1	4	0	0	1	;
	135	4000241	156799.9973	13.1483406	0.000398075	1	4	0	0	1	;
	136	500059	134400.0054	8.320308603	0.00120421	1	4	0	0	1	;
	137	10059	112000	5.648797425	0.002468316	1	4	0	0	1	;
	138	10059	112000	4.361322301	8.06999E-05	1	4	0	0	1	;
	138	770	112000	2.896819123	5.36014E-05	1	4	0	0	1	;
	139	4000248	112000	15.288768	0.00116429	1	4	0	0	1	;
	141	500176	156799.9973	3.942892877	0.00974691	1	4	0	0	1	;
	141	4000249	156799.9973	18.3143349	0.006451643	1	4	0	0	1	;
	143	2200314	134400.0054	11.3297817	0.000127732	1	4	0	0	1	;
	143	4801029	134400.0054	1.866838986	0.001141597	1	4	0	0	1	;
	144	400113	537600.0213	1.544970205	0.000561146	1	4	0	0	1	;
	149	3200010	156799.9973	63.98751474	0.084834782	1	4	0	0	1	;
	149	4900164	156799.9973	0.627644137	2.57527E-06	1	4	0	0	1	;
	150	3300001	112000	15.30486181	0.010306349	1	4	0	0	1	;
	151	2300104	156799.9973	10.5251097	0.001745794	1	4	0	0	1	;
	152	5000034	112000	1.882932411	2.77061E-05	1	4	0	0	1	;
	153	3300066	112000	0.24140161	3.55206E-06	1	4	0	0	1	;
	154	3600061	156799.9973	15.03127321	0.000134267	1	4	0	0	1	;
	155	2500077	156799.9973	17.8315314	7.31641E-05	1	4	0	0	1	;
	156	3300015	156799.9973	7.097206794	0.000104431	1	4	0	0	1	;
	157	2500068	112000	5.149900877	0.00274771	1	4	0	0	1	;
	158	900100	112000	10.17105436	0.00014966	1	4	0	0	1	;
	158	2500150	112000	6.936272548	0.000102062	1	4	0	0	1	;
	159	2500175	156799.9973	8.787018301	0.000129295	1	4	0	0	1	;
	160	2500199	112000	7.596103342	0.000140555	1	4	0	0	1	;
	161	5000008	112000	11.02400625	0.010023553	1	4	0	0	1	;
	162	3600773	134400.0054	5.970666301	5.33332E-05	1	4	0	0	1	;
	163	4200549	112000	1.094353932	1.61027E-05	1	4	0	0	1	;
	164	3400380	492800.0108	10.60557721	9.47347E-05	1	4	0	0	1	;
	166	3600030	156799.9973	3.331341973	0.002967806	1	4	0	0	1	;
	167	3700312	112000	3.122127452	0.000102676	1	4	0	0	1	;
	168	3700183	112000	14.87033819	0.003593474	1	4	0	0	1	;
	175	596	112000	0.692017932	1.28048E-05	1	4	0	0	1	;
	176	3700086	112000	11.95742564	0.001730639	1	4	0	0	1	;
	177	5100019	156799.9973	26.94041819	0.000240646	1	4	0	0	1	;
	178	49	112000	0.466709747	6.86731E-06	1	4	0	0	1	;
	179	2100463	156799.9973	2.269174986	0.007473982	1	4	0	0	1	;
	179	5100463	156799.9973	20.35820099	0.050097674	1	4	0	0	1	;
	180	5400476	156799.9973	0.144840966	0.000608127	1	4	0	0	1	;
	181	5400050	156799.9973	11.42634225	0.000102066	1	4	0	0	1	;
	182	2100114	537600.0213	0.949512918	0.002721195	1	4	0	0	1	;
	182	5400403	537600.0213	1.770278438	0.002750412	1	4	0	0	1	;
	183	3900528	537600.0213	1.158727726	0.000420885	1	4	0	0	1	;
	185	1800102	156799.9973	6.083320274	2.49603E-05	1	4	0	0	1	;
	186	2600020	156799.9973	19.39259551	0.000118226	1	4	0	0	1	;
	187	2600025	492800.0108	7.338608548	0.000558802	1	4	0	0	1	;
	187	3900678	492800.0108	0.997793288	4.09402E-06	1	4	0	0	1	;
	189	1300391	134400.0054	18.9741657	0.000115675	1	4	0	0	1	;
	190	189	134400.0054	23.5447029	0.000242349	1	4	0	0	1	;
	190	1300113	134400.0054	5.809731671	3.54187E-05	1	4	0	0	1	;
	192	1300526	112000	15.17611441	0.005345869	1	4	0	0	1	;
	195	1300175	134400.0054	0.675924459	2.77337E-06	1	4	0	0	1	;
	196	37	537600.0213	2.703697836	1.10935E-05	1	4	0	0	1	;
	199	4700135	156799.9973	11.90914575	0.00012275	1	4	0	0	1	;
	200	3700359	156799.9973	27.84164997	0.008556385	1	4	0	0	1	;
	205	2100192	156799.9973	8.931859507	3.66481E-05	1	4	0	0	1	;
	206	2100412	112000	0.836858849	1.54849E-05	1	4	0	0	1	;
	207	2100413	537600.0213	0.756391678	3.10353E-06	1	4	0	0	1	;
	208	2100310	134400.0054	0.305775356	5.65793E-06	1	4	0	0	1	;
	208	4700203	134400.0054	0.466709747	0.000309885	1	4	0	0	1	;
	210	2100002	112000	18.53964362	0.007714638	1	4	0	0	1	;
	211	2900034	156799.9973	25.0092057	0.000757319	1	4	0	0	1	;
	212	500086	156799.9973	52.80257885	0.000543295	1	4	0	0	1	;
	212	2900225	156799.9973	6.855805808	0.002414969	1	4	0	0	1	;
	213	4000072	112000	15.6267303	0.000515537	1	4	0	0	1	;
	214	500021	537600.0213	2.703697836	0.001153978	1	4	0	0	1	;
	216	215	156799.9973	10.34808164	0.004188386	1	4	0	0	1	;
	218	2200226	134400.0054	33.71575803	0.001021034	1	4	0	0	1	;
	220	1800465	156799.9973	22.9975257	0.000205426	1	4	0	0	1	;
	220	2600012	156799.9973	4.731471452	0.000684682	1	4	0	0	1	;
	221	1701166	492800.0108	4.473976274	0.000647421	1	4	0	0	1	;
	223	1701160	134400.0054	12.95521951	0.002148875	1	4	0	0	1	;
	225	1700564	156799.9973	0.144840966	0.000491318	1	4	0	0	1	;
	227	1900346	112000	19.53743671	0.000642322	1	4	0	0	1	;
	227	2700041	112000	9.977932493	0.000454783	1	4	0	0	1	;
	229	93	112000	11.00791321	0.002092585	1	4	0	0	1	;
	230	1900395	112000	1.754185014	0.00145515	1	4	0	0	1	;
	232	2900371	134400.0054	0.514990068	0.000763246	1	4	0	0	1	;
	234	2700621	112000	18.02465249	0.001373825	1	4	0	0	1	;
	234	4600063	112000	3.025566712	4.45191E-05	1	4	0	0	1	;
	235	2700117	112000	38.624256	0.000714685	1	4	0	0	1	;
	235	4600116	112000	42.26137381	0.052994681	1	4	0	0	1	;
	237	2700121	134400.0054	2.848538849	0.000280401	1	4	0	0	1	;
	237	3800021	134400.0054	1.078260507	0.000448659	1	4	0	0	1	;
	238	2700147	112000	1.721998164	0.000435516	1	4	0	0	1	;
	239	2700552	112000	1.255288274	0.000262856	1	4	0	0	1	;
	239	3800094	112000	15.40142159	0.001516095	1	4	0	0	1	;
	241	3100374	537600.0213	8.336401644	3.42049E-05	1	4	0	0	1	;
	243	5600095	156799.9973	6.694870794	0.01014963	1	4	0	0	1	;
	244	5600024	112000	8.159374356	0.012423184	1	4	0	0	1	;
	245	2000387	112000	27.02088723	0.000499982	1	4	0	0	1	;
	246	2000206	134400.0054	7.901878794	4.81734E-05	1	4	0	0	1	;
	246	4000231	134400.0054	22.51472219	0.004714443	1	4	0	0	1	;
	247	4801198	112000	23.9309451	0.000145894	1	4	0	0	1	;
	248	4800002	134400.0054	31.73626257	0.013867365	1	4	0	0	1	;
	250	4000002	156799.9973	25.8782514	0.004919458	1	4	0	0	1	;
	252	4000222	112000	25.18623299	0.000466034	1	4	0	0	1	;
	253	4000065	112000	23.85047759	0.000441318	1	4	0	0	1	;
	255	4000039	156799.9973	41.95559759	0.000172147	1	4	0	0	1	;
	256	4000061	156799.9973	5.890199178	3.59093E-05	1	4	0	0	1	;
	257	3500099	112000	45.89849162	0.000279818	1	4	0	0	1	;
	260	400077	112000	1.512783356	0.000777188	1	4	0	0	1	;
	261	600496	156799.9973	55.28096394	0.083074918	1	4	0	0	1	;
	261	3200013	156799.9973	54.73378674	0.000224577	1	4	0	0	1	;
	267	4200857	156799.9973	0.354055678	1.45272E-06	1	4	0	0	1	;
	269	3400005	537600.0213	3.379622247	3.01886E-05	1	4	0	0	1	;
	270	4200702	537600.0213	7.177674301	0.008758584	1	4	0	0	1	;
	271	1000045	156799.9973	14.4197223	5.91652E-05	1	4	0	0	1	;
	273	1000018	156799.9973	3.765864822	1.54516E-05	1	4	0	0	1	;
	274	1000003	537600.0213	4.844125425	4.32703E-05	1	4	0	0	1	;
	275	2400019	156799.9973	9.752624548	4.00157E-05	1	4	0	0	1	;
	276	2400183	112000	16.54405589	0.006884539	1	4	0	0	1	;
	277	2400060	112000	0.579363863	0.000907004	1	4	0	0	1	;
	278	2400153	112000	16.10953381	0.000298083	1	4	0	0	1	;
	279	2400060	112000	0.756391678	0.001919472	1	4	0	0	1	;
	280	4200311	156799.9973	14.484096	0.012477302	1	4	0	0	1	;
	281	2400050	156799.9973	9.977932493	0.001220666	1	4	0	0	1	;
	282	5400039	156799.9973	10.460736	0.009603876	1	4	0	0	1	;
	283	5100025	112000	18.05684011	0.01215972	1	4	0	0	1	;
	284	5100373	156799.9973	7.258141808	0.002556734	1	4	0	0	1	;
	285	2400105	112000	2.140427589	0.000406896	1	4	0	0	1	;
	286	5100242	112000	13.38974159	0.011395971	1	4	0	0	1	;
	287	2400039	537600.0213	3.846332329	0.003564399	1	4	0	0	1	;
	289	5400059	112000	10.28370795	0.00538748	1	4	0	0	1	;
	290	5400132	112000	1.577157151	0.002348481	1	4	0	0	1	;
	291	5400133	112000	9.430756055	0.013977045	1	4	0	0	1	;
	292	3900696	112000	0.24140161	0.000936979	1	4	0	0	1	;
	294	5400037	156799.9973	6.131600548	9.02223E-05	1	4	0	0	1	;
	295	5400037	156799.9973	1.609344	0.005678736	1	4	0	0	1	;
	296	3900856	492800.0108	3.154314301	2.8176E-05	1	4	0	0	1	;
	297	4200189	112000	9.784811397	0.002474729	1	4	0	0	1	;
	298	3900192	492800.0108	17.46138301	0.000925123	1	4	0	0	1	;
	299	3900931	492800.0108	1.963399726	0.003096383	1	4	0	0	1	;
	300	3900930	112000	3.025566712	0.003726609	1	4	0	0	1	;
	301	4200042	112000	1.078260507	0.001479043	1	4	0	0	1	;
	303	4200171	112000	14.25878729	0.013213589	1	4	0	0	1	;
	304	3900580	156799.9973	3.846332329	2.3449E-05	1	4	0	0	1	;
	305	3900356	537600.0213	4.409602575	0.000233521	1	4	0	0	1	;
	306	3600200	112000	2.494483123	0.000132101	1	4	0	0	1	;
	306	4200222	112000	18.36261479	0.002248712	1	4	0	0	1	;
	307	4200449	112000	0.225308161	4.169E-06	1	4	0	0	1	;
	309	4400020	112000	1.899025836	2.79429E-05	1	4	0	0	1	;
	310	3500024	537600.0213	36.37117501	0.011171749	1	4	0	0	1	;
	311	3500024	112000	46.05942663	0.018643286	1	4	0	0	1	;
	312	400050	537600.0213	56.64891003	0.000232435	1	4	0	0	1	;
	313	3200020	134400.0054	7.177674301	0.003760178	1	4	0	0	1	;
	314	4900001	134400.0054	14.58065732	5.98255E-05	1	4	0	0	1	;
	315	4900185	156799.9973	14.58065732	5.98255E-05	1	4	0	0	1	;
	316	600485	112000	9.736531507	0.006063923	1	4	0	0	1	;
	317	3200002	156799.9973	9.559503452	0.002310072	1	4	0	0	1	;
	319	3200099	492800.0108	6.276441753	2.57527E-05	1	4	0	0	1	;
	321	1600183	156799.9973	29.56365063	0.000121302	1	4	0	0	1	;
	322	4100001	156799.9973	2.430109425	9.97092E-06	1	4	0	0	1	;
	323	4100126	156799.9973	1.995586575	0.000504674	1	4	0	0	1	;
	324	4100183	537600.0213	2.430109425	0.002117888	1	4	0	0	1	;
	325	4100041	134400.0054	0.627644137	0.002676625	1	4	0	0	1	;
	326	4100277	156799.9973	34.26293523	0.001814673	1	4	0	0	1	;
	327	4100087	112000	8.915765699	0.003895982	1	4	0	0	1	;
	329	1600103	112000	1.641530849	3.03741E-05	1	4	0	0	1	;
	330	1600066	112000	5.680984274	5.07456E-05	1	4	0	0	1	;
	331	1600067	537600.0213	2.430109425	9.97092E-06	1	4	0	0	1	;
	332	5300163	112000	7.869691945	0.000145617	1	4	0	0	1	;
	333	5300150	112000	4.345228877	8.04021E-05	1	4	0	0	1	;
	335	1600051	112000	3.411809096	6.31305E-05	1	4	0	0	1	;
	336	1600168	112000	8.078906849	0.000118876	1	4	0	0	1	;
	337	3000309	156799.9973	10.94353951	0.001338616	1	4	0	0	1	;
	338	1600146	134400.0054	12.97131332	7.9079E-05	1	4	0	0	1	;
	339	1600147	112000	10.6538571	0.000197134	1	4	0	0	1	;
	339	5300187	112000	0.177027839	0.000616483	1	4	0	0	1	;
	340	3800150	112000	62.60348406	0.001158386	1	4	0	0	1	;
	341	3000185	156799.9973	3.588837151	0.00457716	1	4	0	0	1	;
	342	3000186	112000	7.773131397	0.000950938	1	4	0	0	1	;
	343	3800018	112000	0.273588483	0.00018166	1	4	0	0	1	;
	344	3800017	134400.0054	4.972872822	3.03169E-05	1	4	0	0	1	;
	345	3000169	134400.0054	21.83879759	0.004573229	1	4	0	0	1	;
	345	3800254	134400.0054	11.68383781	0.000104366	1	4	0	0	1	;
	346	3000010	112000	6.791431342	6.06647E-05	1	4	0	0	1	;
	347	3000248	156799.9973	7.419076055	3.0441E-05	1	4	0	0	1	;
	348	5600003	112000	4.457882849	3.98202E-05	1	4	0	0	1	;
	349	5600073	156799.9973	36.83788318	0.045787389	1	4	0	0	1	;
	350	5600001	112000	11.28150181	0.014022307	1	4	0	0	1	;
	351	3100182	112000	29.6441166	0.000436193	1	4	0	0	1	;
	352	3100269	156799.9973	19.5052491	8.00315E-05	1	4	0	0	1	;
	353	800001	537600.0213	10.81479134	4.43739E-05	1	4	0	0	1	;
	353	3100444	537600.0213	12.8103783	0.006303409	1	4	0	0	1	;
	354	3100452	537600.0213	15.5623566	6.38535E-05	1	4	0	0	1	;
	355	3100443	156799.9973	12.44022915	7.58413E-05	1	4	0	0	1	;
	356	2000333	112000	29.57974137	0.00054733	1	4	0	0	1	;
	357	2000332	112000	26.39324099	0.000235759	1	4	0	0	1	;
	358	2000476	134400.0054	21.42036932	0.000315186	1	4	0	0	1	;
	359	2000335	156799.9973	28.16352	0.000251572	1	4	0	0	1	;
	360	3800198	112000	1.963399726	8.94896E-05	1	4	0	0	1	;
	361	3800001	112000	13.8886389	0.000256989	1	4	0	0	1	;
	363	365	156799.9973	12.11836066	0.000108248	1	4	0	0	1	;
	364	608	156799.9973	2.591043863	2.92114E-05	1	4	0	0	1	;
	365	4600050	156799.9973	0.466709747	0.000239771	1	4	0	0	1	;
	366	4600054	112000	27.77727781	0.022729415	1	4	0	0	1	;
	367	3100325	112000	63.73001994	0.001179231	1	4	0	0	1	;
	368	3100125	112000	15.59454268	0.000288554	1	4	0	0	1	;
	369	2000166	112000	29.22568679	0.000430036	1	4	0	0	1	;
	374	2000182	537600.0213	12.98740559	5.32883E-05	1	4	0	0	1	;
	378	4800064	156799.9973	0.257495034	1.05652E-06	1	4	0	0	1	;
	379	4800849	156799.9973	11.31368866	0.006036448	1	4	0	0	1	;
	380	4800682	112000	6.260348329	0.005747477	1	4	0	0	1	;
	381	4801387	112000	7.081113753	0.004330263	1	4	0	0	1	;
	383	4801208	112000	11.4585291	0.007496611	1	4	0	0	1	;
	384	4801009	537600.0213	2.124334164	0.001830008	1	4	0	0	1	;
	385	4801008	112000	15.36923551	0.014242617	1	4	0	0	1	;
	386	5500034	112000	17.54184899	0.014353928	1	4	0	0	1	;
	387	5500509	156799.9973	2.816352	0.000277276	1	4	0	0	1	;
	388	2600718	112000	23.65735649	0.009843838	1	4	0	0	1	;
	389	5500064	112000	18.08902619	0.000266168	1	4	0	0	1	;
	390	1900266	134400.0054	1.303568644	0.003967422	1	4	0	0	1	;
	391	1900082	537600.0213	0.321868805	0.000286745	1	4	0	0	1	;
	392	1700745	492800.0108	0.756391678	3.10353E-06	1	4	0	0	1	;
	393	1701225	537600.0213	1.641530849	0.000237559	1	4	0	0	1	;
	394	1700274	112000	1.754185014	0.001562761	1	4	0	0	1	;
	395	1900057	537600.0213	0.386242551	1.58478E-06	1	4	0	0	1	;
	396	1900001	112000	0.434522897	0.001357346	1	4	0	0	1	;
	398	1900003	112000	21.16287299	0.003510797	1	4	0	0	1	;
	399	1900524	112000	2.236988137	3.29157E-05	1	4	0	0	1	;
	400	1700276	156799.9973	1.480596507	0.000646956	1	4	0	0	1	;
	401	1700740	156799.9973	0.788578575	4.80753E-06	1	4	0	0	1	;
	402	2900054	537600.0213	1.963399726	0.003050463	1	4	0	0	1	;
	403	2100371	156799.9973	3.073846986	0.001947809	1	4	0	0	1	;
	404	1700704	537600.0213	0.305775356	3.00995E-05	1	4	0	0	1	;
	404	2900311	537600.0213	0.289681932	0.000145755	1	4	0	0	1	;
	405	2900192	492800.0108	0.56327039	0.000814162	1	4	0	0	1	;
	406	1700738	112000	1.915119452	1.71069E-05	1	4	0	0	1	;
	408	4700358	134400.0054	2.526670164	0.002067453	1	4	0	0	1	;
	409	4700334	134400.0054	4.216481096	6.20426E-05	1	4	0	0	1	;
	410	4700333	156799.9973	2.317455452	9.50869E-06	1	4	0	0	1	;
	411	500250	112000	29.2417806	0.001332984	1	4	0	0	1	;
	412	500020	112000	38.27020143	0.003767195	1	4	0	0	1	;
	413	2200159	112000	24.96092581	0.000822426	1	4	0	0	1	;
	414	2200092	112000	25.10576701	0.000464546	1	4	0	0	1	;
	415	500010	156799.9973	35.405568	0.001071998	1	4	0	0	1	;
	417	500195	112000	26.00699879	0.00494486	1	4	0	0	1	;
	419	2200078	112000	29.51536921	0.000303747	1	4	0	0	1	;
	420	2800079	112000	25.70122411	0.010694389	1	4	0	0	1	;
	421	2800196	156799.9973	20.69616329	0.008376771	1	4	0	0	1	;
	422	2800110	112000	27.19791299	0.002677378	1	4	0	0	1	;
	423	2200444	134400.0054	10.76651145	0.000110758	1	4	0	0	1	;
	424	2200443	156799.9973	12.0057063	4.92603E-05	1	4	0	0	1	;
	425	100206	156799.9973	25.04139332	0.001326271	1	4	0	0	1	;
	426	2800038	112000	15.64282411	0.013475649	1	4	0	0	1	;
	428	1700997	112000	3.283061699	6.07483E-05	1	4	0	0	1	;
	429	1800776	537600.0213	0.386242551	1.58478E-06	1	4	0	0	1	;
	430	1800862	156799.9973	23.78610389	9.75961E-05	1	4	0	0	1	;
	431	1700205	112000	12.79428449	0.001564723	1	4	0	0	1	;
	432	1700204	112000	17.87981129	0.007439899	1	4	0	0	1	;
	433	1800646	156799.9973	7.081113753	2.90543E-05	1	4	0	0	1	;
	434	1700679	112000	4.119920548	0.002116633	1	4	0	0	1	;
	435	1700200	134400.0054	14.83815211	0.001460761	1	4	0	0	1	;
	436	1800817	134400.0054	1.142634205	0.000475442	1	4	0	0	1	;
	438	1700010	112000	14.80596449	0.001457507	1	4	0	0	1	;
	439	1700389	112000	3.331341973	5.23685E-05	1	4	0	0	1	;
	440	1800733	112000	6.437376	7.25444E-05	1	4	0	0	1	;
	441	1800231	448000	0.64373761	5.75021E-06	1	4	0	0	1	;
	442	1700401	537600.0213	8.835298192	3.62519E-05	1	4	0	0	1	;
	444	1700837	492800.0108	0.01609344	2.36804E-07	1	4	0	0	1	;
	444	1800292	492800.0108	4.924592548	7.2462E-05	1	4	0	0	1	;
	445	1800306	537600.0213	1.239194849	5.08451E-06	1	4	0	0	1	;
	447	1800533	156799.9973	11.95742564	0.000910598	1	4	0	0	1	;
	448	2100350	537600.0213	1.239194849	0.00066118	1	4	0	0	1	;
	449	1800001	112000	1.142634205	0.000217213	1	4	0	0	1	;
	450	4700043	112000	7.338608548	0.006922514	1	4	0	0	1	;
	451	4700042	112000	7.515636603	0.000139066	1	4	0	0	1	;
	452	2800088	112000	2.446202849	0.000354067	1	4	0	0	1	;
	453	2800005	156799.9973	9.961839452	4.08742E-05	1	4	0	0	1	;
	453	4700042	134400.0054	28.19570762	0.000115689	1	4	0	0	1	;
	454	2800093	134400.0054	4.361322301	3.89577E-05	1	4	0	0	1	;
	455	4700239	112000	3.749771397	6.9384E-05	1	4	0	0	1	;
	456	4700401	156799.9973	38.17363857	0.000394402	1	4	0	0	1	;
	457	4700347	156799.9973	9.945745644	0.008138147	1	4	0	0	1	;
	458	4700195	112000	15.288768	0.000282896	1	4	0	0	1	;
	459	4700421	156799.9973	11.4746229	0.000873991	1	4	0	0	1	;
	462	100104	156799.9973	12.7460046	5.22978E-05	1	4	0	0	1	;
	463	2800007	112000	21.3881817	0.001132702	1	4	0	0	1	;
	464	2800007	112000	12.37585545	0.000182102	1	4	0	0	1	;
	466	100361	156799.9973	9.124980603	0.003796858	1	4	0	0	1	;
	467	2800206	112000	7.853598904	0.000145319	1	4	0	0	1	;
	468	100436	134400.0054	14.8220583	0.007457777	1	4	0	0	1	;
	468	2800208	134400.0054	8.770924493	0.007075394	1	4	0	0	1	;
	469	1300306	134400.0054	0.531083541	7.81453E-06	1	4	0	0	1	;
	470	1300551	112000	1.866838986	0.00095909	1	4	0	0	1	;
	472	3600343	112000	2.092147123	0.001408833	1	4	0	0	1	;
	475	2400023	112000	6.469562849	0.000212762	1	4	0	0	1	;
	476	2400028	112000	8.819205151	0.000129769	1	4	0	0	1	;
	477	2400029	112000	13.85645129	0.000631603	1	4	0	0	1	;
	478	2400026	112000	16.4314023	0.000304039	1	4	0	0	1	;
	479	5100304	112000	38.624256	0.002045587	1	4	0	0	1	;
	480	4200709	537600.0213	2.172614438	1.9407E-05	1	4	0	0	1	;
	481	1000042	112000	12.1344537	0.00022453	1	4	0	0	1	;
	482	3400212	537600.0213	0.579363863	5.17519E-06	1	4	0	0	1	;
	485	2400068	537600.0213	3.862425753	0.000734248	1	4	0	0	1	;
	487	1100005	492800.0108	2.929006164	0.001063899	1	4	0	0	1	;
	487	5100135	537600.0213	2.269174986	0.001506698	1	4	0	0	1	;
	489	2400162	492800.0108	8.883578849	5.41583E-05	1	4	0	0	1	;
	489	5400428	492800.0108	6.775338301	0.004498869	1	4	0	0	1	;
	490	491	112000	13.59895649	0.00594282	1	4	0	0	1	;
	491	5400076	112000	1.367942438	0.000583865	1	4	0	0	1	;
	492	5400139	492800.0108	3.299155123	2.01131E-05	1	4	0	0	1	;
	493	2400045	112000	1.866838986	2.74692E-05	1	4	0	0	1	;
	494	5400088	492800.0108	2.912912548	0.001272835	1	4	0	0	1	;
	496	3900653	112000	6.051133425	8.90383E-05	1	4	0	0	1	;
	496	5400192	112000	2.397922575	0.003390615	1	4	0	0	1	;
	497	3400136	112000	0.225308161	0.000212537	1	4	0	0	1	;
	498	5400245	537600.0213	6.582217206	2.70073E-05	1	4	0	0	1	;
	499	5400095	537600.0213	4.860218849	1.99418E-05	1	4	0	0	1	;
	500	5100066	537600.0213	1.561063726	6.40516E-06	1	4	0	0	1	;
	500	5400305	537600.0213	3.170407726	0.00455824	1	4	0	0	1	;
	501	3900180	112000	2.848538849	0.001463725	1	4	0	0	1	;
	502	5400195	112000	2.124334164	0.000161763	1	4	0	0	1	;
	503	3300072	537600.0213	7.225954192	0.004865868	1	4	0	0	1	;
	504	2500001	112000	5.954572877	0.000110181	1	4	0	0	1	;
	504	3300048	112000	5.117714027	0.002574989	1	4	0	0	1	;
	505	5000058	156799.9973	3.186501151	2.84635E-05	1	4	0	0	1	;
	506	5000031	156799.9973	0.498896644	7.34092E-06	1	4	0	0	1	;
	507	2500058	112000	1.850745562	3.42453E-05	1	4	0	0	1	;
	508	4400021	112000	7.853598904	0.000145319	1	4	0	0	1	;
	509	2500068	537600.0213	6.437376	0.002747556	1	4	0	0	1	;
	510	508	112000	0.836858849	0.000348211	1	4	0	0	1	;
	511	4400027	537600.0213	0.627644137	0.000553161	1	4	0	0	1	;
	512	5000014	112000	35.55040921	0.000657808	1	4	0	0	1	;
	513	5000056	112000	22.41816241	0.015096544	1	4	0	0	1	;
	514	900018	112000	9.495129753	0.000139714	1	4	0	0	1	;
	514	3600412	112000	6.807525151	0.000100168	1	4	0	0	1	;
	515	900053	985600.0213	11.76430455	0.000217681	1	4	0	0	1	;
	517	3600177	156799.9973	15.91641271	0.000142174	1	4	0	0	1	;
	517	4201158	156799.9973	2.623230712	2.34321E-05	1	4	0	0	1	;
	518	4200985	112000	0.498896644	7.34092E-06	1	4	0	0	1	;
	520	4700300	156799.9973	33.29732822	0.000202996	1	4	0	0	1	;
	521	3700045	112000	22.04801249	0.000725763	1	4	0	0	1	;
	523	4500182	112000	19.39259551	0.001909092	1	4	0	0	1	;
	524	3700005	156799.9973	14.25878729	0.003445663	1	4	0	0	1	;
	525	3700115	156799.9973	17.67059638	0.007542102	1	4	0	0	1	;
	526	4500032	156799.9973	18.1694937	0.0001623	1	4	0	0	1	;
	527	4500020	156799.9973	16.0290663	0.000849369	1	4	0	0	1	;
	528	3700409	134400.0054	3.299155123	0.001441614	1	4	0	0	1	;
	530	3700075	112000	16.31874871	0.005191784	1	4	0	0	1	;
	531	4500277	156799.9973	28.45320241	0.000116746	1	4	0	0	1	;
	532	3700340	134400.0054	2.253081562	3.31525E-05	1	4	0	0	1	;
	533	1300133	156799.9973	10.5251097	0.016477291	1	4	0	0	1	;
	535	4500028	112000	17.3648217	0.007587962	1	4	0	0	1	;
	536	4500317	112000	11.0722869	0.013638085	1	4	0	0	1	;
	537	1300327	112000	4.844125425	2.9532E-05	1	4	0	0	1	;
	538	4500002	156799.9973	26.36105337	0.00501109	1	4	0	0	1	;
	539	4500278	537600.0213	3.106033836	9.40313E-05	1	4	0	0	1	;
	540	4500180	112000	7.950159452	0.000421035	1	4	0	0	1	;
	543	1900013	537600.0213	1.931212877	7.92391E-06	1	4	0	0	1	;
	544	2900282	492800.0108	0.257495034	0.000875597	1	4	0	0	1	;
	545	2100261	537600.0213	1.882932411	0.005425411	1	4	0	0	1	;
	546	2600024	112000	13.63114411	0.000121761	1	4	0	0	1	;
	548	3500044	156799.9973	4.795845151	0.007536016	1	4	0	0	1	;
	549	1800383	492800.0108	0.048280319	1.1667E-05	1	4	0	0	1	;
	550	5400002	537600.0213	1.255288274	0.000657606	1	4	0	0	1	;
	551	2900183	156799.9973	1.174821151	4.82038E-06	1	4	0	0	1	;
	553	1800283	134400.0054	3.685397699	5.42281E-05	1	4	0	0	1	;
	557	1900575	112000	21.7905177	0.000659723	1	4	0	0	1	;
	558	5500210	112000	1.255288274	0.000808588	1	4	0	0	1	;
	559	5400423	492800.0108	1.046073562	0.003903339	1	4	0	0	1	;
	561	3600335	224000	3.266968274	0.000107473	1	4	0	0	1	;
	563	5500293	112000	2.204801288	0.002114655	1	4	0	0	1	;
	565	3600261	537600.0213	1.400129288	0.000929683	1	4	0	0	1	;
	566	5000046	112000	0.257495034	0.000414527	1	4	0	0	1	;
	567	3600510	112000	2.01168	6.61985E-05	1	4	0	0	1	;
	569	4700168	156799.9973	1.335755493	0.003499352	1	4	0	0	1	;
	571	572	156799.9973	1.512783356	6.20706E-06	1	4	0	0	1	;
	572	4700395	134400.0054	1.110447356	4.55625E-06	1	4	0	0	1	;
	573	500134	537600.0213	3.009473288	0.003989545	1	4	0	0	1	;
	574	2400069	156799.9973	0.724204781	0.00177379	1	4	0	0	1	;
	575	576	112000	0.402336	5.9201E-06	1	4	0	0	1	;
	576	2400061	112000	5.890199178	8.66702E-05	1	4	0	0	1	;
	577	2400082	112000	0.289681932	0.001175917	1	4	0	0	1	;
	577	5400445	112000	6.453469808	0.004157039	1	4	0	0	1	;
	578	1900084	112000	2.735884877	0.003703733	1	4	0	0	1	;
	579	1900684	112000	0.370149127	0.000315035	1	4	0	0	1	;
	580	1800373	112000	1.126540781	1.65763E-05	1	4	0	0	1	;
	581	1800383	492800.0108	0.032186879	6.11855E-06	1	4	0	0	1	;
	583	5400036	112000	3.009473288	5.56859E-05	1	4	0	0	1	;
	585	627	112000	1.625437425	0.000198882	1	4	0	0	1	;
	586	4200710	112000	1.738091589	0.008382167	1	4	0	0	1	;
	588	4801299	156799.9973	0.852952274	0.002259487	1	4	0	0	1	;
	589	590	112000	0.418429425	1.10016E-05	1	4	0	0	1	;
	590	782	112000	8.545616548	0.024945933	1	4	0	0	1	;
	591	592	112000	3.508370027	0.00964853	1	4	0	0	1	;
	592	800330	112000	2.848538849	0.004004511	1	4	0	0	1	;
	593	594	537600.0213	1.593250575	6.53722E-06	1	4	0	0	1	;
	594	4700149	537600.0213	0.482803219	0.001686604	1	4	0	0	1	;
	595	174	112000	1.432316137	0.004012424	1	4	0	0	1	;
	596	595	112000	1.866838986	0.00240045	1	4	0	0	1	;
	597	1800372	112000	3.894612603	0.000130237	1	4	0	0	1	;
	598	1900383	156799.9973	21.42036932	0.000220741	1	4	0	0	1	;
	598	2900454	156799.9973	8.095000658	4.93508E-05	1	4	0	0	1	;
	599	2000260	537600.0213	2.301361836	0.0030058	1	4	0	0	1	;
	602	1900015	112000	3.186501151	0.001700325	1	4	0	0	1	;