<NUMBER OF ZONES> 183565
<TOTAL OD FLOW> 
<END OF METADATA>


Origin 	103985 
103985 :  89500.0;103393 :  13200.0;102865 :  32700.0;102477 :      1.7;105365 :    308.0; 
105089 :     26.9;105017 :      5.2;105773 :   1450.0;107333 :    166.0;107921 :     34.0; 
110181 :      8.8;107537 :   1220.0;108785 :      1.7;106877 :     79.5;111461 :     43.2; 
111089 :      9.8;111701 :    189.0;112033 :     36.5;111877 :      1.1;112137 :     44.0; 
112105 :      1.2;112309 :     18.8;112413 :    357.0;113565 :    670.0;112497 :    313.0; 
113141 :    735.0;112709 :   3200.0;115237 :   3670.0;115549 :   1080.0;114269 :   2880.0; 
116773 :     25.3;120121 :    990.0;122137 :   1260.0;118117 :    525.0;125425 :   2020.0; 
125197 :    203.0;123989 :     43.0;124185 :    575.0;128117 :    202.0;130961 :     60.0; 
130069 :     51.0;129509 :     16.8;132029 :     48.7;132105 :     71.0;131321 :    530.0; 
133197 :    296.0;132885 :     42.5;133137 :   1820.0;133477 :   1110.0;134509 :     31.6; 
135325 :     53.5;135281 :     80.5;135457 :     97.0;136089 :     72.0;135993 :      7.3; 
137053 :   1100.0;137293 :    113.0;138709 :    670.0;140149 :     41.7;139653 :    383.0; 
141729 :   7150.0;142893 :    353.0;143153 :     79.5;143493 :    183.0;145365 :     27.6; 
146493 :    121.0;145993 :     16.5;147289 :      2.6;147533 :      8.3;147605 :     42.2; 
147637 :      0.7;148441 :    220.0;147809 :    109.0;149349 :     13.4;149993 :      4.6; 
150825 :    237.0;151217 :    142.0;150493 :      8.3;152397 :     65.5;152517 :    197.0; 
152625 :    140.0;152577 :    174.0;152537 :    945.0;154557 :    246.0;156073 :     84.5; 
157089 :    442.0;156809 :    142.0;158057 :     54.0;158377 :   1670.0;159317 :    121.0; 
159329 :     20.1;159465 :     40.3;161029 :     60.0;160489 :     31.8;163209 :    102.0; 
161805 :    435.0;163385 :     27.9;163649 :   1030.0;165693 :     23.5;166941 :    159.0; 
166441 :    474.0;166737 :   2760.0;167393 :      3.8;168193 :    530.0;167749 :   2790.0; 
167829 :   1400.0;168705 :   3570.0;173489 :     35.0;169521 :     24.7;172093 :      1.8; 
169817 :    650.0;170205 :     52.5;169905 :   1720.0;169769 :    690.0;170133 :     51.0; 
169997 :    640.0;175301 :    106.0;174933 :      1.8;175465 :      1.7;175973 :    156.0; 
175925 :     34.3;177217 :     71.0;177065 :    690.0;179385 :     30.6;178049 :     16.9; 
178097 :     30.0;180305 :     51.5;181573 :     17.1;181309 :    720.0;183565 :      4.6; 

Origin 	103393 
103985 :  10400.0;103393 :  31000.0;102865 :  24400.0;102477 :      5.3;105365 :     32.7; 
105089 :      8.9;105017 :    109.0;105773 :    660.0;107333 :    520.0;107921 :      5.5; 
110181 :    191.0;107537 :    129.0;108785 :      0.6;106877 :      5.7;111461 :     41.5; 
111089 :     26.0;111701 :    293.0;112033 :    337.0;111877 :     39.5;112137 :      1.7; 
112105 :      0.4;112309 :      0.5;112413 :   4540.0;113565 :  25100.0;112497 :  10600.0; 
113141 :   7700.0;112709 :  11900.0;115237 :  36700.0;115549 :   1840.0;114269 :  43700.0; 
116773 :     27.3;120121 :   3850.0;122137 :    190.0;118117 :    840.0;125425 :     86.5; 
125197 :    108.0;123989 :     10.5;124185 :     76.0;128117 :    306.0;130961 :    106.0; 
130069 :     58.0;129509 :     46.9;132029 :     12.1;132105 :    140.0;131321 :    152.0; 
133197 :    437.0;132885 :    137.0;133137 :   1970.0;133477 :    432.0;134509 :      7.8; 
135325 :     21.0;135281 :      4.8;135457 :      0.2;136089 :     26.0;135993 :      1.9; 
137053 :    290.0;137293 :     19.1;138709 :     48.4;140149 :    288.0;139653 :     39.3; 
141729 :   3970.0;142893 :    129.0;143153 :     78.5;143493 :    133.0;145365 :      7.5; 
146493 :     55.0;145993 :      1.7;147289 :     17.9;147533 :      0.2;147605 :      1.7; 
147637 :      0.1;148441 :   1380.0;147809 :    550.0;149349 :     50.0;149993 :    845.0; 
150825 :    148.0;151217 :    685.0;150493 :     21.7;152397 :    177.0;152517 :     67.0; 
152625 :     90.5;152577 :     47.9;152537 :    135.0;154557 :     42.7;156073 :    870.0; 
157089 :   1120.0;156809 :     16.1;158057 :     62.0;158377 :    327.0;159317 :    326.0; 
159329 :    430.0;159465 :    142.0;161029 :     78.5;160489 :      2.1;163209 :    445.0; 
161805 :    234.0;163385 :     38.7;163649 :    323.0;165693 :      5.3;166941 :     98.0; 
166441 :    118.0;166737 :    195.0;167393 :     97.0;168193 :    905.0;167749 :   4300.0; 
167829 :    147.0;168705 :   6350.0;173489 :     12.6;169521 :     52.5;172093 :      8.3; 
169817 :    570.0;170205 :    165.0;169905 :    785.0;169769 :    126.0;170133 :     49.9; 
169997 :    590.0;175301 :     15.7;174933 :      0.0;175465 :      1.3;175973 :     45.7; 
175925 :     77.5;177217 :     16.2;177065 :     90.5;179385 :     54.5;178049 :      6.6; 
178097 :     20.2;180305 :      6.3;181573 :      7.0;181309 :     52.5;183565 :      0.3; 

Origin 	102865 
103985 :  33300.0;103393 :  26000.0;102865 : 248000.0;102477 :     38.3;105365 :    221.0; 
105089 :    890.0;105017 :     43.2;105773 :   2070.0;107333 :   2180.0;107921 :     62.5; 
110181 :    151.0;107537 :    360.0;108785 :     99.0;106877 :    230.0;111461 :    313.0; 
111089 :     22.5;111701 :    385.0;112033 :     66.0;111877 :     84.0;112137 :     71.5; 
112105 :     25.9;112309 :      5.5;112413 :   1220.0;113565 :   1740.0;112497 :   1030.0; 
113141 :   3060.0;112709 :  25600.0;115237 :  12200.0;115549 :  23400.0;114269 :  13600.0; 
116773 :     23.1;120121 :   2060.0;122137 :    580.0;118117 :   1100.0;125425 :    960.0; 
125197 :    550.0;123989 :    397.0;124185 :   3430.0;128117 :    479.0;130961 :     74.5; 
130069 :    174.0;129509 :    170.0;132029 :    200.0;132105 :    313.0;131321 :   1860.0; 
133197 :    216.0;132885 :     28.6;133137 :   1110.0;133477 :    880.0;134509 :    113.0; 
135325 :    195.0;135281 :    205.0;135457 :    151.0;136089 :    190.0;135993 :    159.0; 
137053 :   2120.0;137293 :    477.0;138709 :   1100.0;140149 :    472.0;139653 :    220.0; 
141729 :  16200.0;142893 :    195.0;143153 :    166.0;143493 :    935.0;145365 :     17.9; 
146493 :    126.0;145993 :    310.0;147289 :     57.5;147533 :    119.0;147605 :      7.8; 
147637 :      1.6;148441 :    955.0;147809 :    735.0;149349 :    112.0;149993 :    158.0; 
150825 :    407.0;151217 :    280.0;150493 :     47.9;152397 :    199.0;152517 :   1290.0; 
152625 :   2600.0;152577 :    303.0;152537 :   1170.0;154557 :    246.0;156073 :   1550.0; 
157089 :   1630.0;156809 :    640.0;158057 :    229.0;158377 :   1340.0;159317 :    218.0; 
159329 :    610.0;159465 :    167.0;161029 :    112.0;160489 :     17.9;163209 :    665.0; 
161805 :    810.0;163385 :    316.0;163649 :    805.0;165693 :     54.5;166941 :    865.0; 
166441 :   2370.0;166737 :   2260.0;167393 :     90.5;168193 :   6350.0;167749 :   3850.0; 
167829 :   2110.0;168705 :   6200.0;173489 :     23.2;169521 :    169.0;172093 :    111.0; 
169817 :   2390.0;170205 :    228.0;169905 :   2660.0;169769 :    605.0;170133 :    535.0; 
169997 :   1370.0;175301 :    121.0;174933 :     31.0;175465 :      5.3;175973 :    205.0; 
175925 :    171.0;177217 :    126.0;177065 :    415.0;179385 :    114.0;178049 :      3.6; 
178097 :     63.0;180305 :    224.0;181573 :    350.0;181309 :   1080.0;183565 :     14.0; 

Origin 	102477 
103985 :      0.9;103393 :      4.8;102865 :      7.4;102477 : 175000.0;105365 :     27.3; 
105089 :      5.0;105017 :      2.8;105773 :      3.6;107333 :  20100.0;107921 :      2.9; 
110181 :      5.7;107537 :  49400.0;108785 :    363.0;106877 :     82.0;111461 :     12.3; 
111089 :     10.0;111701 :      1.0;112033 :      2.8;111877 :      0.5;112137 :      1.7; 
112105 :      0.7;112309 :      3.1;112413 :      2.8;113565 :     18.1;112497 :     11.6; 
113141 :      3.4;112709 :     11.3;115237 :      7.8;115549 :      0.2;114269 :      8.3; 
116773 :     34.7;120121 :     44.7;122137 :      0.9;118117 :     11.1;125425 :     18.7; 
125197 :      6.3;123989 :      0.7;124185 :     16.3;128117 :      5.0;130961 :      1.6; 
130069 :      0.7;129509 :      1.7;132029 :     13.7;132105 :     34.3;131321 :     37.0; 
133197 :      0.6;132885 :      0.1;133137 :      0.9;133477 :      3.1;134509 :      3.0; 
135325 :      5.2;135281 :      5.5;135457 :      1.1;136089 :     11.2;135993 :      0.7; 
137053 :     14.1;137293 :      0.5;138709 :      8.3;140149 :      8.7;139653 :      5.2; 
141729 :      3.4;142893 :      1.5;143153 :      4.0;143493 :      2.4;145365 :      5.8; 
146493 :      1.2;145993 :      1.3;147289 :      7.5;147533 :      2.3;147605 :      1.0; 
147637 :      0.9;148441 :     13.6;147809 :      0.9;149349 :      3.8;149993 :      0.5; 
150825 :      6.9;151217 :     20.5;150493 :      1.0;152397 :      5.5;152517 :      3.1; 
152625 :      1.0;152577 :      4.3;152537 :      4.9;154557 :      6.6;156073 :      2.3; 
157089 :     25.3;156809 :      7.3;158057 :      0.9;158377 :      3.8;159317 :      3.5; 
159329 :      6.2;159465 :      2.7;161029 :     46.9;160489 :      5.8;163209 :      4.7; 
161805 :      2.2;163385 :      0.1;163649 :     13.7;165693 :      3.4;166941 :      3.4; 
166441 :      1.1;166737 :      3.4;167393 :      3.2;168193 :      2.2;167749 :      2.0; 
167829 :      1.6;168705 :      3.0;173489 :     11.4;169521 :      1.2;172093 :      0.2; 
169817 :     18.1;170205 :      0.6;169905 :     20.6;169769 :      1.4;170133 :      3.8; 
169997 :     35.3;175301 :      7.3;174933 :      2.5;175465 :      1.4;175973 :      0.5; 
175925 :      6.2;177217 :      3.8;177065 :      2.3;179385 :  11300.0;178049 :      2.7; 
178097 :  12700.0;180305 :     29.3;181573 :      8.4;181309 :     10.2;183565 :      1.6; 

Origin 	105365 
103985 :      6.6;103393 :      3.7;102865 :     37.5;102477 :     17.4;105365 : 187000.0; 
105089 :  26900.0;105017 :   9450.0;105773 :     17.8;107333 :   6850.0;107921 :    178.0; 
110181 :   3830.0;107537 :   1620.0;108785 :    215.0;106877 :   5000.0;111461 :    510.0; 
111089 :    263.0;111701 :      5.6;112033 :     11.3;111877 :      1.5;112137 :      2.1; 
112105 :      4.3;112309 :      4.3;112413 :     18.8;113565 :     50.0;112497 :     17.2; 
113141 :     42.0;112709 :     27.3;115237 :    198.0;115549 :     12.6;114269 :     10.2; 
116773 :     76.5;120121 :    253.0;122137 :      2.2;118117 :     31.8;125425 :      3.5; 
125197 :     17.9;123989 :      1.6;124185 :     15.5;128117 :    241.0;130961 :      7.8; 
130069 :     24.7;129509 :     67.5;132029 :      3.2;132105 :     18.1;131321 :     43.5; 
133197 :      1.8;132885 :      0.9;133137 :     20.1;133477 :     54.5;134509 :     11.9; 
135325 :     61.0;135281 :      7.2;135457 :      1.4;136089 :     92.5;135993 :      3.3; 
137053 :    705.0;137293 :     21.0;138709 :     10.3;140149 :     90.5;139653 :     35.7; 
141729 :     40.7;142893 :     77.5;143153 :     79.5;143493 :     13.4;145365 :    405.0; 
146493 :      8.3;145993 :     13.5;147289 :   2830.0;147533 :     40.7;147605 :      4.0; 
147637 :      1.8;148441 :     53.0;147809 :    174.0;149349 :   2510.0;149993 :      3.6; 
150825 :    111.0;151217 :     75.5;150493 :      2.6;152397 :    205.0;152517 :     28.6; 
152625 :    233.0;152577 :    234.0;152537 :      7.5;154557 :    186.0;156073 :     14.2; 
157089 :     12.6;156809 :     23.4;158057 :     12.8;158377 :     42.0;159317 :     56.5; 
159329 :     15.0;159465 :     32.6;161029 :    249.0;160489 :     64.0;163209 :    127.0; 
161805 :     10.8;163385 :      5.1;163649 :     90.5;165693 :     23.8;166941 :      6.9; 
166441 :     17.3;166737 :     32.0;167393 :     35.3;168193 :     26.3;167749 :     14.3; 
167829 :      5.2;168705 :     10.8;173489 :    253.0;169521 :      3.3;172093 :    123.0; 
169817 :    675.0;170205 :   1190.0;169905 :    575.0;169769 :    239.0;170133 :    169.0; 
169997 :    447.0;175301 :    403.0;174933 :     92.5;175465 :      2.6;175973 :      6.0; 
175925 :     17.4;177217 :     11.3;177065 :      8.8;179385 :    715.0;178049 :     16.4; 
178097 :    232.0;180305 :      3.7;181573 :     16.4;181309 :     80.5;183565 :    109.0; 

Origin 	105089 
103985 :      3.5;103393 :      1.0;102865 :     12.7;102477 :      4.3;105365 :  12300.0; 
105089 :  57000.0;105017 :   5100.0;105773 :      4.3;107333 :   2630.0;107921 :    154.0; 
110181 :    263.0;107537 :    830.0;108785 :     52.5;106877 :    437.0;111461 :     37.5; 
111089 :     18.3;111701 :     32.0;112033 :     65.0;111877 :      4.7;112137 :      2.2; 
112105 :      0.1;112309 :      1.9;112413 :    182.0;113565 :    208.0;112497 :     65.0; 
113141 :     64.0;112709 :     90.0;115237 :     78.0;115549 :      2.9;114269 :     48.7; 
116773 :     92.5;120121 :   1860.0;122137 :     43.2;118117 :    253.0;125425 :      4.7; 
125197 :    113.0;123989 :      6.6;124185 :     46.7;128117 :      6.7;130961 :     17.9; 
130069 :      1.5;129509 :     85.5;132029 :     40.5;132105 :     23.3;131321 :     18.6; 
133197 :      2.6;132885 :      0.4;133137 :      7.7;133477 :     14.5;134509 :      4.7; 
135325 :     25.9;135281 :      7.1;135457 :      2.7;136089 :     54.5;135993 :      6.7; 
137053 :   1120.0;137293 :    215.0;138709 :    300.0;140149 :    214.0;139653 :     43.2; 
141729 :    145.0;142893 :     10.1;143153 :     50.5;143493 :     26.0;145365 :     38.7; 
146493 :      2.3;145993 :      2.8;147289 :    415.0;147533 :     11.2;147605 :     34.0; 
147637 :      6.0;148441 :    130.0;147809 :     54.0;149349 :     98.0;149993 :     28.6; 
150825 :     26.6;151217 :    132.0;150493 :     29.3;152397 :     42.7;152517 :     80.5; 
152625 :     14.8;152577 :     35.3;152537 :     23.2;154557 :     39.5;156073 :     10.6; 
157089 :     21.0;156809 :     56.0;158057 :      5.7;158377 :     23.9;159317 :      4.3; 
159329 :      7.1;159465 :      1.2;161029 :    156.0;160489 :     10.0;163209 :     20.9; 
161805 :     19.8;163385 :      5.9;163649 :     11.3;165693 :      4.6;166941 :      1.6; 
166441 :     10.9;166737 :      5.5;167393 :      2.1;168193 :      9.6;167749 :     11.2; 
167829 :     12.5;168705 :     16.6;173489 :     35.6;169521 :      5.3;172093 :     20.5; 
169817 :    403.0;170205 :    132.0;169905 :    270.0;169769 :    106.0;170133 :    163.0; 
169997 :    135.0;175301 :     44.5;174933 :      2.9;175465 :      1.7;175973 :      3.6; 
175925 :      5.8;177217 :     13.0;177065 :      5.4;179385 :     65.0;178049 :      5.7; 
178097 :     30.8;180305 :     27.3;181573 :     68.5;181309 :     98.0;183565 :      2.3; 

Origin 	105017 
103985 :     11.9;103393 :      4.3;102865 :     19.1;102477 :      5.3;105365 :  15600.0; 
105089 :   3060.0;105017 :  57000.0;105773 :     14.4;107333 :  31600.0;107921 :    130.0; 
110181 :    214.0;107537 :   5700.0;108785 :    112.0;106877 :  32000.0;111461 :    188.0; 
111089 :    487.0;111701 :     15.0;112033 :     88.5;111877 :     23.9;112137 :      2.3; 
112105 :      0.0;112309 :      1.0;112413 :     10.8;113565 :     21.3;112497 :      6.2; 
113141 :      6.8;112709 :      6.5;115237 :      5.8;115549 :      2.0;114269 :     23.0; 
116773 :     37.3;120121 :     26.9;122137 :      1.0;118117 :      4.2;125425 :      1.4; 
125197 :      4.3;123989 :      0.2;124185 :      4.8;128117 :     12.2;130961 :     18.4; 
130069 :      1.1;129509 :     10.3;132029 :      0.4;132105 :      2.4;131321 :      3.1; 
133197 :      2.4;132885 :      0.6;133137 :      5.3;133477 :      5.0;134509 :      2.5; 
135325 :      3.5;135281 :      1.8;135457 :      1.9;136089 :     89.5;135993 :      7.2; 
137053 :     70.5;137293 :      1.1;138709 :     10.2;140149 :      8.9;139653 :      4.3; 
141729 :      1.8;142893 :      3.1;143153 :      3.1;143493 :      7.0;145365 :     37.0; 
146493 :      1.9;145993 :      7.9;147289 :   3060.0;147533 :     90.0;147605 :      1.5; 
147637 :      0.8;148441 :      4.3;147809 :      2.0;149349 :   2150.0;149993 :      0.9; 
150825 :     11.7;151217 :     10.8;150493 :      2.1;152397 :     18.1;152517 :      1.7; 
152625 :      1.4;152577 :      2.0;152537 :      6.6;154557 :      9.8;156073 :      5.9; 
157089 :      9.3;156809 :      4.9;158057 :      3.1;158377 :      5.8;159317 :     13.5; 
159329 :      2.8;159465 :     36.7;161029 :     86.0;160489 :     24.6;163209 :     10.6; 
161805 :      3.6;163385 :      4.5;163649 :     25.1;165693 :      1.7;166941 :      0.9; 
166441 :      1.7;166737 :      6.8;167393 :      1.4;168193 :      6.0;167749 :     17.1; 
167829 :      2.1;168705 :      3.3;173489 :     13.2;169521 :      1.8;172093 :     13.8; 
169817 :    118.0;170205 :    457.0;169905 :     51.5;169769 :     25.1;170133 :     23.9; 
169997 :     81.5;175301 :    137.0;174933 :    360.0;175465 :      0.6;175973 :      2.0; 
175925 :      1.9;177217 :      5.9;177065 :      5.8;179385 :     88.5;178049 :      3.8; 
178097 :     43.5;180305 :      1.8;181573 :      4.1;181309 :      5.8;183565 :     72.0; 

Origin 	105773 
103985 :    625.0;103393 :    363.0;102865 :   2110.0;102477 :      8.7;105365 :    510.0; 
105089 :    437.0;105017 :    137.0;105773 : 447000.0;107333 :   3600.0;107921 :     71.0; 
110181 :     55.5;107537 :    885.0;108785 :     13.1;106877 :    145.0;111461 :    720.0; 
111089 :    535.0;111701 :     20.9;112033 :     70.5;111877 :      3.3;112137 :     11.6; 
112105 :      7.6;112309 :      7.3;112413 :    293.0;113565 :    260.0;112497 :    122.0; 
113141 :    273.0;112709 :    306.0;115237 :   1740.0;115549 :    469.0;114269 :    645.0; 
116773 :    120.0;120121 :   4200.0;122137 :    850.0;118117 :   1050.0;125425 :    377.0; 
125197 :    685.0;123989 :    151.0;124185 :    980.0;128117 :   1130.0;130961 :    870.0; 
130069 :    640.0;129509 :   1480.0;132029 :     89.5;132105 :    238.0;131321 :   1740.0; 
133197 :   2000.0;132885 :   1520.0;133137 :   3900.0;133477 :  14700.0;134509 :    129.0; 
135325 :    313.0;135281 :     32.0;135457 :    137.0;136089 :    151.0;135993 :    161.0; 
137053 :   1800.0;137293 :    189.0;138709 :    640.0;140149 :    615.0;139653 :    640.0; 
141729 : 142000.0;142893 :   8600.0;143153 :   5100.0;143493 :  31600.0;145365 :    308.0; 
146493 :    740.0;145993 :    960.0;147289 :    103.0;147533 :     18.8;147605 :     50.5; 
147637 :      1.6;148441 :    375.0;147809 :    122.0;149349 :    137.0;149993 :    132.0; 
150825 :     78.0;151217 :    417.0;150493 :     17.7;152397 :    246.0;152517 :    425.0; 
152625 :    373.0;152577 :    327.0;152537 :    640.0;154557 :   1200.0;156073 :    505.0; 
157089 :    670.0;156809 :    340.0;158057 :    103.0;158377 :   1080.0;159317 :   1370.0; 
159329 :   2690.0;159465 :   4100.0;161029 :    575.0;160489 :     61.5;163209 :    620.0; 
161805 :    167.0;163385 :    479.0;163649 :   1110.0;165693 :     35.3;166941 :    202.0; 
166441 :    239.0;166737 :    330.0;167393 :     48.9;168193 :   7550.0;167749 :    360.0; 
167829 :    316.0;168705 :   3530.0;173489 :    447.0;169521 :    900.0;172093 :    660.0; 
169817 :   8450.0;170205 :    620.0;169905 :   3970.0;169769 :   1440.0;170133 :    530.0; 
169997 :   9800.0;175301 :    276.0;174933 :     16.9;175465 :      4.6;175973 :    330.0; 
175925 :     42.5;177217 :    115.0;177065 :    540.0;179385 :    320.0;178049 :    110.0; 
178097 :    161.0;180305 :     37.0;181573 :    452.0;181309 :   2020.0;183565 :    210.0; 

Origin 	107333 
103985 :    845.0;103393 :    373.0;102865 :   1290.0;102477 :    132.0;105365 :  19000.0; 
105089 :   3570.0;105017 :   2730.0;105773 :   1300.0;107333 :1180000.0;107921 :   6750.0; 
110181 :  49900.0;107537 :  36500.0;108785 :   8000.0;106877 :  41200.0;111461 :   4220.0; 
111089 :   1270.0;111701 :   1210.0;112033 :    259.0;111877 :     72.5;112137 :    185.0; 
112105 :     20.8;112309 :     37.0;112413 :    765.0;113565 :   2100.0;112497 :    565.0; 
113141 :    357.0;112709 :   1350.0;115237 :   6650.0;115549 :    218.0;114269 :   1130.0; 
116773 :   2390.0;120121 :  13300.0;122137 :     97.0;118117 :    780.0;125425 :    300.0; 
125197 :   1960.0;123989 :    316.0;124185 :   1050.0;128117 :   1730.0;130961 :   1380.0; 
130069 :    585.0;129509 :    540.0;132029 :    370.0;132105 :   1360.0;131321 :   1730.0; 
133197 :    108.0;132885 :     71.5;133137 :    373.0;133477 :    310.0;134509 :    263.0; 
135325 :    545.0;135281 :    191.0;135457 :    127.0;136089 :   1160.0;135993 :     37.0; 
137053 :   4450.0;137293 :    245.0;138709 :    515.0;140149 :   5200.0;139653 :    725.0; 
141729 :   2380.0;142893 :   1740.0;143153 :   2410.0;143493 :   1190.0;145365 :   1480.0; 
146493 :    665.0;145993 :    346.0;147289 :  13000.0;147533 :   1960.0;147605 :     86.0; 
147637 :     37.3;148441 :   4320.0;147809 :   1360.0;149349 :   3060.0;149993 :    220.0; 
150825 :    785.0;151217 :   5000.0;150493 :    181.0;152397 :    780.0;152517 :   1090.0; 
152625 :    313.0;152577 :    450.0;152537 :    915.0;154557 :    489.0;156073 :   1470.0; 
157089 :   2460.0;156809 :   2070.0;158057 :    435.0;158377 :   1120.0;159317 :    520.0; 
159329 :    269.0;159465 :    790.0;161029 :   4150.0;160489 :   1140.0;163209 :   1160.0; 
161805 :    525.0;163385 :    720.0;163649 :   1790.0;165693 :    296.0;166941 :    397.0; 
166441 :    915.0;166737 :    454.0;167393 :    151.0;168193 :   3200.0;167749 :   2530.0; 
167829 :    640.0;168705 :   1220.0;173489 :    300.0;169521 :     54.5;172093 :     30.3; 
169817 :   5450.0;170205 :   1710.0;169905 :   6150.0;169769 :   1530.0;170133 :   1440.0; 
169997 :   3300.0;175301 :   6450.0;174933 :   1380.0;175465 :     39.5;175973 :    199.0; 
175925 :    700.0;177217 :   1150.0;177065 :    357.0;179385 :   5450.0;178049 :    660.0; 
178097 :   4520.0;180305 :    380.0;181573 :   1180.0;181309 :   2320.0;183565 :    735.0; 

Origin 	107921 
103985 :      3.0;103393 :      6.8;102865 :     25.9;102477 :      5.8;105365 :    555.0; 
105089 :     78.0;105017 :    151.0;105773 :      5.0;107333 :   3200.0;107921 :  96000.0; 
110181 :    256.0;107537 :  26000.0;108785 :   3060.0;106877 :  21100.0;111461 :     80.0; 
111089 :     34.7;111701 :     14.2;112033 :      4.7;111877 :     31.8;112137 :      1.5; 
112105 :      0.1;112309 :      4.9;112413 :      6.3;113565 :     21.3;112497 :      4.6; 
113141 :      5.5;112709 :    140.0;115237 :     73.0;115549 :      5.3;114269 :      8.7; 
116773 :    163.0;120121 :    266.0;122137 :      2.0;118117 :     75.0;125425 :      4.3; 
125197 :     21.5;123989 :      3.1;124185 :      5.9;128117 :     53.5;130961 :     61.5; 
130069 :      1.8;129509 :      3.1;132029 :      1.5;132105 :      5.1;131321 :      9.1; 
133197 :     31.3;132885 :      0.8;133137 :     19.3;133477 :     18.1;134509 :      6.7; 
135325 :     53.0;135281 :     14.6;135457 :      9.6;136089 :     28.8;135993 :      3.3; 
137053 :    353.0;137293 :     17.2;138709 :     87.0;140149 :     72.0;139653 :      5.8; 
141729 :      8.4;142893 :     15.3;143153 :     55.0;143493 :     65.0;145365 :    280.0; 
146493 :      1.6;145993 :      3.1;147289 :    350.0;147533 :   1550.0;147605 :      3.9; 
147637 :      0.7;148441 :    158.0;147809 :     10.9;149349 :     92.5;149993 :      3.1; 
150825 :     64.0;151217 :     83.5;150493 :     55.5;152397 :    155.0;152517 :     11.6; 
152625 :      2.7;152577 :    251.0;152537 :     22.6;154557 :     34.3;156073 :     74.5; 
157089 :     81.0;156809 :     29.3;158057 :      2.4;158377 :     36.3;159317 :     27.9; 
159329 :      2.7;159465 :      6.0;161029 :    590.0;160489 :    190.0;163209 :     31.3; 
161805 :      4.3;163385 :      8.8;163649 :    113.0;165693 :      4.5;166941 :      8.1; 
166441 :     94.5;166737 :      3.2;167393 :     31.0;168193 :      5.0;167749 :     15.6; 
167829 :      3.1;168705 :     44.7;173489 :      4.8;169521 :     32.0;172093 :      1.7; 
169817 :    141.0;170205 :     45.7;169905 :    259.0;169769 :    126.0;170133 :      6.7; 
169997 :    113.0;175301 :    395.0;174933 :     18.6;175465 :      1.6;175973 :      6.5; 
175925 :     19.4;177217 :     18.4;177065 :      4.5;179385 :    520.0;178049 :     11.7; 
178097 :    497.0;180305 :      2.0;181573 :      3.9;181309 :     47.9;183565 :     24.4; 

Origin 	110181 
103985 :     31.3;103393 :     26.9;102865 :     19.4;102477 :      8.6;105365 :    370.0; 
105089 :    222.0;105017 :    116.0;105773 :    110.0;107333 :  16000.0;107921 :    273.0; 
110181 :  97000.0;107537 :   1970.0;108785 :    405.0;106877 :   1710.0;111461 :    308.0; 
111089 :     20.5;111701 :     24.4;112033 :     23.9;111877 :     27.6;112137 :     23.0; 
112105 :      2.8;112309 :     17.3;112413 :     54.0;113565 :    205.0;112497 :     88.5; 
113141 :     84.5;112709 :    122.0;115237 :    360.0;115549 :     10.3;114269 :     46.0; 
116773 :     74.0;120121 :    269.0;122137 :      7.2;118117 :     62.5;125425 :      7.8; 
125197 :    103.0;123989 :      7.3;124185 :     38.0;128117 :     22.9;130961 :    122.0; 
130069 :      4.8;129509 :      7.7;132029 :     77.0;132105 :     29.6;131321 :     31.8; 
133197 :      3.0;132885 :      1.1;133137 :     11.3;133477 :     13.0;134509 :     22.6; 
135325 :     49.2;135281 :     43.2;135457 :      6.1;136089 :    286.0;135993 :     24.9; 
137053 :    865.0;137293 :     30.8;138709 :     83.5;140149 :     56.5;139653 :     40.3; 
141729 :     90.5;142893 :     57.5;143153 :    113.0;143493 :     43.0;145365 :    228.0; 
146493 :     52.0;145993 :      6.0;147289 :    450.0;147533 :    126.0;147605 :     25.9; 
147637 :      7.3;148441 :    191.0;147809 :     50.5;149349 :     53.0;149993 :     26.9; 
150825 :    148.0;151217 :    248.0;150493 :      9.7;152397 :     51.0;152517 :     68.0; 
152625 :     17.8;152577 :     34.0;152537 :     41.7;154557 :     66.5;156073 :     27.3; 
157089 :     56.5;156809 :     49.2;158057 :     14.9;158377 :     39.3;159317 :     21.8; 
159329 :     17.5;159465 :     20.6;161029 :    142.0;160489 :     48.7;163209 :     77.0; 
161805 :     48.4;163385 :     33.7;163649 :     84.5;165693 :     75.0;166941 :     22.4; 
166441 :      7.0;166737 :     22.3;167393 :      8.6;168193 :    279.0;167749 :     13.7; 
167829 :     32.0;168705 :     64.0;173489 :     25.9;169521 :      3.1;172093 :     19.9; 
169817 :    494.0;170205 :    225.0;169905 :    308.0;169769 :    353.0;170133 :     48.4; 
169997 :    189.0;175301 :    235.0;174933 :     15.6;175465 :      5.2;175973 :     29.3; 
175925 :     63.0;177217 :     24.9;177065 :    123.0;179385 :    246.0;178049 :      7.1; 
178097 :    695.0;180305 :     45.0;181573 :     50.5;181309 :     59.0;183565 :      7.2; 

Origin 	107537 
103985 :    171.0;103393 :    169.0;102865 :    735.0;102477 :     86.5;105365 :   2980.0; 
105089 :    303.0;105017 :    260.0;105773 :    170.0;107333 :  41500.0;107921 :  31600.0; 
110181 :   2410.0;107537 : 482000.0;108785 :   8200.0;106877 :  73500.0;111461 :   1430.0; 
111089 :    233.0;111701 :    100.0;112033 :    570.0;111877 :     38.5;112137 :     28.8; 
112105 :      2.7;112309 :     65.0;112413 :    206.0;113565 :   1050.0;112497 :    151.0; 
113141 :    580.0;112709 :   1550.0;115237 :   1620.0;115549 :    116.0;114269 :    212.0; 
116773 :   1510.0;120121 :   2340.0;122137 :    110.0;118117 :    815.0;125425 :    155.0; 
125197 :    365.0;123989 :    415.0;124185 :     75.0;128117 :    266.0;130961 :    800.0; 
130069 :     25.9;129509 :    112.0;132029 :     34.6;132105 :    595.0;131321 :    445.0; 
133197 :    147.0;132885 :     14.2;133137 :    240.0;133477 :     74.0;134509 :    380.0; 
135325 :    467.0;135281 :     62.5;135457 :     15.6;136089 :   1080.0;135993 :    116.0; 
137053 :   3230.0;137293 :    116.0;138709 :    390.0;140149 :   1340.0;139653 :    263.0; 
141729 :    151.0;142893 :    825.0;143153 :    154.0;143493 :     67.5;145365 :   1200.0; 
146493 :    174.0;145993 :    575.0;147289 :    870.0;147533 :   3900.0;147605 :     21.4; 
147637 :      9.4;148441 :   1320.0;147809 :    263.0;149349 :    237.0;149993 :     69.0; 
150825 :    615.0;151217 :    795.0;150493 :    390.0;152397 :    565.0;152517 :    163.0; 
152625 :     94.5;152577 :    187.0;152537 :    152.0;154557 :    393.0;156073 :    131.0; 
157089 :    318.0;156809 :   1090.0;158057 :     84.5;158377 :    445.0;159317 :    520.0; 
159329 :     13.2;159465 :    494.0;161029 :   3360.0;160489 :    935.0;163209 :    194.0; 
161805 :    109.0;163385 :     90.5;163649 :    530.0;165693 :     40.7;166941 :     61.0; 
166441 :     20.8;166737 :   1270.0;167393 :     28.0;168193 :   1100.0;167749 :    293.0; 
167829 :     50.5;168705 :     48.4;173489 :    487.0;169521 :     28.0;172093 :     47.2; 
169817 :   2200.0;170205 :    497.0;169905 :   4720.0;169769 :   1120.0;170133 :    860.0; 
169997 :    460.0;175301 :   3460.0;174933 :     38.5;175465 :     43.5;175973 :    346.0; 
175925 :     60.0;177217 :   1600.0;177065 :    226.0;179385 :   3160.0;178049 :    165.0; 
178097 :   3950.0;180305 :     27.6;181573 :    148.0;181309 :    525.0;183565 :     57.0; 

Origin 	108785 
103985 :     13.0;103393 :      1.4;102865 :     31.0;102477 :      2.0;105365 :    510.0; 
105089 :    100.0;105017 :    196.0;105773 :     73.0;107333 :   4500.0;107921 :   1120.0; 
110181 :    350.0;107537 :  10300.0;108785 :  56000.0;106877 :  30600.0;111461 :    112.0; 
111089 :     36.5;111701 :     16.4;112033 :     18.4;111877 :      1.1;112137 :      5.4; 
112105 :      6.8;112309 :     17.1;112413 :     10.6;113565 :     29.0;112497 :     23.9; 
113141 :     15.3;112709 :     24.1;115237 :     80.5;115549 :      4.6;114269 :     46.7; 
116773 :    115.0;120121 :    303.0;122137 :      5.5;118117 :     29.0;125425 :      0.3; 