<NUMBER OF ZONES> 5600082
<TOTAL OD FLOW> 
<END OF METADATA>


Origin 	100369 
100369 :  17900.0;100206 :   2640.0;100044 :   6540.0; 8811 :      0.3;400108 :     61.6; 
400026 :      5.4;400005 :      1.0;500051 :    290.0;600146 :     33.2;600328 :      6.8; 
600966 :      1.8;600206 :    244.0;600582 :      0.3;600006 :     15.9;800297 :      8.6; 
800189 :      2.0;900011 :     37.8;900110 :      7.3;900057 :      0.2;1000016 :      8.8; 
1000008 :      0.2;1100005 :      3.8;1200019 :     71.4;1200378 :    134.0;1200047 :     62.6; 
1200252 :    147.0;1200117 :    640.0;1300279 :    734.0;1300358 :    216.0;1300026 :    576.0; 
1600015 :      5.1;1700799 :    198.0;1701370 :    252.0;1700235 :    105.0;1800477 :    404.0; 
1800419 :     40.6;1800073 :      8.6;1800135 :    115.0;1900443 :     40.4;2000571 :     12.0; 
2000304 :     10.2;2000133 :      3.4;2100259 :      9.7;2100278 :     14.2;2100048 :    106.0; 
2200119 :     59.2;2200026 :      8.5;2200103 :    364.0;2200200 :    222.0;2300030 :      6.3; 
2400078 :     10.7;2400067 :     16.1;2400111 :     19.4;2500093 :     14.4;2500064 :      1.5; 
2600083 :    220.0;2600152 :     22.6;2600597 :    134.0;2700280 :      8.3;2700125 :     76.6; 
2800043 :   1430.0;2900115 :     70.6;2900197 :     15.9;2900290 :     36.6;3000204 :      5.5; 
3100267 :     24.2;3100100 :      3.3;3200050 :      0.5;3200119 :      1.7;3300009 :      8.4; 
3300022 :      0.1;3400183 :     44.0;3400003 :     21.8;3500060 :      2.7;3600053 :      0.9; 
3600304 :     47.4;3600406 :     28.4;3600202 :      1.6;3600769 :     13.1;3700001 :     39.4; 
3700029 :     28.0;3700016 :     34.8;3700006 :    189.0;3800153 :     49.2;3900290 :     16.9; 
3900585 :     88.4;3900514 :     28.4;3900870 :     10.8;3900952 :    334.0;4000033 :     24.2; 
4000036 :      4.0;4000074 :      8.1;4100167 :     12.0;4100008 :      6.4;4200541 :     20.4; 
4200094 :     87.0;4200593 :      5.6;4200664 :    206.0;4400001 :      4.7;4500321 :     31.8; 
4500183 :     94.8;4500264 :    552.0;4600084 :      0.8;4700133 :    106.0;4700005 :    558.0; 
4700026 :    280.0;4700273 :    714.0;4801135 :      7.0;4800056 :      4.9;4800749 :      0.4; 
4800131 :    130.0;4800234 :     10.5;4800153 :    344.0;4800119 :    138.0;4800213 :     10.2; 
4800176 :    128.0;4900183 :     21.2;4900084 :      0.4;5000010 :      0.3;5100093 :     31.2; 
5100081 :      6.9;5100450 :     14.2;5100408 :    138.0;5300598 :      6.1;5300198 :      3.4; 
5300215 :      6.0;5400246 :     10.3;5500121 :      3.4;5500039 :    144.0;5600082 :      0.9; 

Origin 	100206 
100369 :   2080.0;100206 :   6200.0;100044 :   4880.0; 8811 :      1.1;400108 :      6.5; 
400026 :      1.8;400005 :     21.8;500051 :    132.0;600146 :    104.0;600328 :      1.1; 
600966 :     38.2;600206 :     25.8;600582 :      0.1;600006 :      1.1;800297 :      8.3; 
800189 :      5.2;900011 :     58.6;900110 :     67.4;900057 :      7.9;1000016 :      0.3; 
1000008 :      0.1;1100005 :      0.1;1200019 :    908.0;1200378 :   5020.0;1200047 :   2120.0; 
1200252 :   1540.0;1200117 :   2380.0;1300279 :   7340.0;1300358 :    368.0;1300026 :   8740.0; 
1600015 :      5.5;1700799 :    770.0;1701370 :     38.0;1700235 :    168.0;1800477 :     17.3; 
1800419 :     21.6;1800073 :      2.1;1800135 :     15.2;1900443 :     61.2;2000571 :     21.2; 
2000304 :     11.6;2000133 :      9.4;2100259 :      2.4;2100278 :     28.0;2100048 :     30.4; 
2200119 :     87.4;2200026 :     27.4;2200103 :    394.0;2200200 :     86.4;2300030 :      1.6; 
2400078 :      4.2;2400067 :      1.0;2400111 :      0.0;2500093 :      5.2;2500064 :      0.4; 
2600083 :     58.0;2600152 :      3.8;2600597 :      9.7;2700280 :     57.6;2700125 :      7.9; 
2800043 :    794.0;2900115 :     25.8;2900197 :     15.7;2900290 :     26.6;3000204 :      1.5; 
3100267 :     11.0;3100100 :      0.3;3200050 :      3.6;3200119 :      0.0;3300009 :      0.3; 
3300022 :      0.0;3400183 :    276.0;3400003 :    110.0;3500060 :     10.0;3600053 :    169.0; 
3600304 :     29.6;3600406 :    137.0;3600202 :      4.3;3600769 :     35.4;3700001 :     13.4; 
3700029 :     18.1;3700016 :      9.6;3700006 :     27.0;3800153 :      8.5;3900290 :    174.0; 
3900585 :    224.0;3900514 :      3.2;3900870 :     12.4;3900952 :     65.4;4000033 :     65.2; 
4000036 :     86.0;4000074 :     28.4;4100167 :     15.7;4100008 :      0.4;4200541 :     89.0; 
4200094 :     46.8;4200593 :      7.7;4200664 :     64.6;4400001 :      1.1;4500321 :     19.6; 
4500183 :     23.6;4500264 :     39.0;4600084 :     19.4;4700133 :    181.0;4700005 :    860.0; 
4700026 :     29.4;4700273 :   1270.0;4801135 :      2.5;4800056 :     10.5;4800749 :      1.6; 
4800131 :    114.0;4800234 :     33.0;4800153 :    157.0;4800119 :     25.2;4800213 :     10.0; 
4800176 :    118.0;4900183 :      3.1;4900084 :      0.0;5000010 :      0.3;5100093 :      9.1; 
5100081 :     15.5;5100450 :      3.2;5100408 :     18.1;5300598 :     10.9;5300198 :      1.3; 
5300215 :      4.0;5400246 :      1.3;5500121 :      1.4;5500039 :     10.5;5600082 :      0.1; 

Origin 	100044 
100369 :   6660.0;100206 :   5200.0;100044 :  49600.0; 8811 :      7.7;400108 :     44.2; 
400026 :    178.0;400005 :      8.6;500051 :    414.0;600146 :    436.0;600328 :     12.5; 
600966 :     30.2;600206 :     72.0;600582 :     19.8;600006 :     46.0;800297 :     62.6; 
800189 :      4.5;900011 :     77.0;900110 :     13.2;900057 :     16.8;1000016 :     14.3; 
1000008 :      5.2;1100005 :      1.1;1200019 :    244.0;1200378 :    348.0;1200047 :    206.0; 
1200252 :    612.0;1200117 :   5120.0;1300279 :   2440.0;1300358 :   4680.0;1300026 :   2720.0; 
1600015 :      4.6;1700799 :    412.0;1701370 :    116.0;1700235 :    220.0;1800477 :    192.0; 
1800419 :    110.0;1800073 :     79.4;1800135 :    686.0;1900443 :     95.8;2000571 :     14.9; 
2000304 :     34.8;2000133 :     34.0;2100259 :     40.0;2100278 :     62.6;2100048 :    372.0; 
2200119 :     43.2;2200026 :      5.7;2200103 :    222.0;2200200 :    176.0;2300030 :     22.6; 
2400078 :     39.0;2400067 :     41.0;2400111 :     30.2;2500093 :     38.0;2500064 :     31.8; 
2600083 :    424.0;2600152 :     95.4;2600597 :    220.0;2700280 :     94.4;2700125 :     44.0; 
2800043 :   3240.0;2900115 :     39.0;2900197 :     33.2;2900290 :    187.0;3000204 :      3.6; 
3100267 :     25.2;3100100 :     62.0;3200050 :     11.5;3200119 :     23.8;3300009 :      1.6; 
3300022 :      0.3;3400183 :    191.0;3400003 :    147.0;3500060 :     22.4;3600053 :     31.6; 
3600304 :     81.4;3600406 :     56.0;3600202 :      9.6;3600769 :     39.8;3700001 :    258.0; 
3700029 :    520.0;3700016 :     60.6;3700006 :    234.0;3800153 :     49.2;3900290 :    310.0; 
3900585 :    326.0;3900514 :    128.0;3900870 :     45.8;3900952 :    268.0;4000033 :     43.6; 
4000036 :    122.0;4000074 :     33.4;4100167 :     22.4;4100008 :      3.6;4200541 :    133.0; 
4200094 :    162.0;4200593 :     63.2;4200664 :    161.0;4400001 :     10.9;4500321 :    173.0; 
4500183 :    474.0;4500264 :    452.0;4600084 :     18.1;4700133 :   1270.0;4700005 :    770.0; 
4700026 :    422.0;4700273 :   1240.0;4801135 :      4.6;4800056 :     33.8;4800749 :     22.2; 
4800131 :    478.0;4800234 :     45.6;4800153 :    532.0;4800119 :    121.0;4800213 :    107.0; 
4800176 :    274.0;4900183 :     24.2;4900084 :      6.2;5000010 :      1.1;5100093 :     41.0; 
5100081 :     34.2;5100450 :     25.2;5100408 :     83.0;5300598 :     22.8;5300198 :      0.7; 
5300215 :     12.6;5400246 :     44.8;5500121 :     70.0;5500039 :    216.0;5600082 :      2.8; 

Origin 	8811 
100369 :      0.2;100206 :      1.0;100044 :      1.5; 8811 :  35000.0;400108 :      5.5; 
400026 :      1.0;400005 :      0.6;500051 :      0.7;600146 :   4020.0;600328 :      0.6; 
600966 :      1.1;600206 :   9880.0;600582 :     72.6;600006 :     16.4;800297 :      2.5; 
800189 :      2.0;900011 :      0.2;900110 :      0.6;900057 :      0.1;1000016 :      0.3; 
1000008 :      0.1;1100005 :      0.6;1200019 :      0.6;1200378 :      3.6;1200047 :      2.3; 
1200252 :      0.7;1200117 :      2.3;1300279 :      1.6;1300358 :      0.0;1300026 :      1.7; 
1600015 :      6.9;1700799 :      8.9;1701370 :      0.2;1700235 :      2.2;1800477 :      3.7; 
1800419 :      1.3;1800073 :      0.1;1800135 :      3.3;1900443 :      1.0;2000571 :      0.3; 
2000304 :      0.1;2000133 :      0.3;2100259 :      2.7;2100278 :      6.9;2100048 :      7.4; 
2200119 :      0.1;2200026 :      0.0;2200103 :      0.2;2200200 :      0.6;2300030 :      0.6; 
2400078 :      1.0;2400067 :      1.1;2400111 :      0.2;2500093 :      2.2;2500064 :      0.1; 
2600083 :      2.8;2600152 :      0.1;2600597 :      1.7;2700280 :      1.7;2700125 :      1.0; 
2800043 :      0.7;2900115 :      0.3;2900197 :      0.8;2900290 :      0.5;3000204 :      1.1; 
3100267 :      0.2;3100100 :      0.3;3200050 :      1.5;3200119 :      0.5;3300009 :      0.2; 
3300022 :      0.2;3400183 :      2.7;3400003 :      0.2;3500060 :      0.8;3600053 :      0.1; 
3600304 :      1.4;3600406 :      4.1;3600202 :      0.2;3600769 :      1.1;3700001 :      0.6; 
3700029 :      0.2;3700016 :      0.9;3700006 :      1.0;3800153 :      1.3;3900290 :      0.5; 
3900585 :      5.1;3900514 :      1.5;3900870 :      0.2;3900952 :      0.8;4000033 :      0.7; 
4000036 :      1.2;4000074 :      0.5;4100167 :      9.4;4100008 :      1.1;4200541 :      0.9; 
4200094 :      0.4;4200593 :      0.0;4200664 :      2.7;4400001 :      0.7;4500321 :      0.7; 
4500183 :      0.2;4500264 :      0.7;4600084 :      0.6;4700133 :      0.4;4700005 :      0.4; 
4700026 :      0.3;4700273 :      0.6;4801135 :      2.3;4800056 :      0.2;4800749 :      0.0; 
4800131 :      3.6;4800234 :      0.1;4800153 :      4.1;4800119 :      0.3;4800213 :      0.8; 
4800176 :      7.1;4900183 :      1.5;4900084 :      0.5;5000010 :      0.3;5100093 :      0.1; 
5100081 :      1.2;5100450 :      0.8;5100408 :      0.5;5300598 :   2260.0;5300198 :      0.5; 
5300215 :   2540.0;5400246 :      5.9;5500121 :      1.7;5500039 :      2.0;5600082 :      0.3; 

Origin 	400108 
100369 :      1.3;100206 :      0.7;100044 :      7.5; 8811 :      3.5;400108 :  37400.0; 
400026 :   5380.0;400005 :   1890.0;500051 :      3.6;600146 :   1370.0;600328 :     35.6; 
600966 :    766.0;600206 :    324.0;600582 :     43.0;600006 :   1000.0;800297 :    102.0; 
800189 :     52.6;900011 :      1.1;900110 :      2.3;900057 :      0.3;1000016 :      0.4; 
1000008 :      0.8;1100005 :      0.9;1200019 :      3.8;1200378 :     10.0;1200047 :      3.4; 
1200252 :      8.4;1200117 :      5.5;1300279 :     39.6;1300358 :      2.5;1300026 :      2.0; 
1600015 :     15.3;1700799 :     50.6;1701370 :      0.4;1700235 :      6.4;1800477 :      0.7; 
1800419 :      3.6;1800073 :      0.3;1800135 :      3.1;1900443 :     48.2;2000571 :      1.6; 
2000304 :      4.9;2000133 :     13.5;2100259 :      0.6;2100278 :      3.6;2100048 :      8.7; 
2200119 :      0.4;2200026 :      0.2;2200103 :      4.0;2200200 :     10.9;2300030 :      2.4; 
2400078 :     12.2;2400067 :      1.4;2400111 :      0.3;2500093 :     18.5;2500064 :      0.7; 
2600083 :    141.0;2600152 :      4.2;2600597 :      2.1;2700280 :     18.1;2700125 :      7.1; 
2800043 :      8.1;2900115 :     15.5;2900197 :     15.9;2900290 :      2.7;3000204 :     81.0; 
3100267 :      1.7;3100100 :      2.7;3200050 :    566.0;3200119 :      8.1;3300009 :      0.8; 
3300022 :      0.3;3400183 :     10.6;3400003 :     34.8;3500060 :    502.0;3600053 :      0.7; 
3600304 :     22.2;3600406 :     15.1;3600202 :      0.5;3600769 :     41.0;3700001 :      5.7; 
3700029 :     46.6;3700016 :     46.8;3700006 :      1.5;3800153 :     37.2;3900290 :      2.8; 
3900585 :      2.5;3900514 :      4.7;3900870 :      2.6;3900952 :      8.4;4000033 :     11.3; 
4000036 :      3.0;4000074 :      6.5;4100167 :     49.8;4100008 :     12.8;4200541 :     25.4; 
4200094 :      2.2;4200593 :      1.0;4200664 :     18.1;4400001 :      4.8;4500321 :      1.4; 
4500183 :      3.5;4500264 :      6.4;4600084 :      7.1;4700133 :      5.3;4700005 :      2.9; 
4700026 :      1.0;4700273 :      2.2;4801135 :     50.6;4800056 :      0.7;4800749 :     24.6; 
4800131 :    135.0;4800234 :    238.0;4800153 :    115.0;4800119 :     47.8;4800213 :     33.8; 
4800176 :     89.4;4900183 :     80.6;4900084 :     18.5;5000010 :      0.5;5100093 :      1.2; 
5100081 :      3.5;5100450 :      2.3;5100408 :      1.8;5300598 :    143.0;5300198 :      3.3; 
5300215 :     46.4;5400246 :      0.7;5500121 :      3.3;5500039 :     16.1;5600082 :     21.8; 

Origin 	400026 
100369 :      0.7;100206 :      0.2;100044 :      2.5; 8811 :      0.9;400108 :   2460.0; 
400026 :  11400.0;400005 :   1020.0;500051 :      0.8;600146 :    526.0;600328 :     30.8; 
600966 :     52.6;600206 :    166.0;600582 :     10.5;600006 :     87.4;800297 :      7.5; 
800189 :      3.7;900011 :      6.4;900110 :     13.0;900057 :      0.9;1000016 :      0.4; 
1000008 :      0.0;1100005 :      0.4;1200019 :     36.4;1200378 :     41.6;1200047 :     13.0; 
1200252 :     12.8;1200117 :     18.0;1300279 :     15.6;1300358 :      0.6;1300026 :      9.7; 
1600015 :     18.5;1700799 :    372.0;1701370 :      8.6;1700235 :     50.6;1800477 :      0.9; 
1800419 :     22.6;1800073 :      1.3;1800135 :      9.3;1900443 :      1.3;2000571 :      3.6; 
2000304 :      0.3;2000133 :     17.1;2100259 :      8.1;2100278 :      4.7;2100048 :      3.7; 
2200119 :      0.5;2200026 :      0.1;2200103 :      1.5;2200200 :      2.9;2300030 :      0.9; 
2400078 :      5.2;2400067 :      1.4;2400111 :      0.5;2500093 :     10.9;2500064 :      1.3; 
2600083 :    224.0;2600152 :     43.0;2600597 :     60.0;2700280 :     42.8;2700125 :      8.6; 
2800043 :     29.0;2900115 :      2.0;2900197 :     10.1;2900290 :      5.2;3000204 :      7.7; 
3100267 :      0.5;3100100 :      0.6;3200050 :     83.0;3200119 :      2.2;3300009 :      6.8; 
3300022 :      1.2;3400183 :     26.0;3400003 :     10.8;3500060 :     19.6;3600053 :      5.7; 
3600304 :      5.3;3600406 :     26.4;3600202 :      5.9;3600769 :      8.5;3700001 :     16.1; 
3700029 :      3.0;3700016 :      7.1;3700006 :      4.6;3800153 :      7.9;3900290 :      2.1; 
3900585 :      4.2;3900514 :     11.2;3900870 :      1.1;3900952 :      4.8;4000033 :      0.9; 
4000036 :      1.4;4000074 :      0.2;4100167 :     31.2;4100008 :      2.0;4200541 :      4.2; 
4200094 :      4.0;4200593 :      1.2;4200664 :      2.3;4400001 :      0.9;4500321 :      0.3; 
4500183 :      2.2;4500264 :      1.1;4600084 :      0.4;4700133 :      1.9;4700005 :      2.2; 
4700026 :      2.5;4700273 :      3.3;4801135 :      7.1;4800056 :      1.1;4800749 :      4.1; 
4800131 :     80.6;4800234 :     26.4;4800153 :     54.0;4800119 :     21.2;4800213 :     32.6; 
4800176 :     27.0;4900183 :      8.9;4900084 :      0.6;5000010 :      0.3;5100093 :      0.7; 
5100081 :      1.2;5100450 :      2.6;5100408 :      1.1;5300598 :     13.0;5300198 :      1.1; 
5300215 :      6.2;5400246 :      5.5;5500121 :     13.7;5500039 :     19.6;5600082 :      0.5; 

Origin 	400005 
100369 :      2.4;100206 :      0.9;100044 :      3.8; 8811 :      1.1;400108 :   3120.0; 
400026 :    612.0;400005 :  11400.0;500051 :      2.9;600146 :   6320.0;600328 :     26.0; 
600966 :     42.8;600206 :   1140.0;600582 :     22.4;600006 :   6400.0;800297 :     37.6; 
800189 :     97.4;900011 :      3.0;900110 :     17.7;900057 :      4.8;1000016 :      0.5; 
1000008 :      0.0;1100005 :      0.2;1200019 :      2.2;1200378 :      4.3;1200047 :      1.2; 
1200252 :      1.4;1200117 :      1.3;1300279 :      1.2;1300358 :      0.4;1300026 :      4.6; 
1600015 :      7.5;1700799 :      5.4;1701370 :      0.2;1700235 :      0.8;1800477 :      0.3; 
1800419 :      0.9;1800073 :      0.0;1800135 :      1.0;1900443 :      2.4;2000571 :      3.7; 
2000304 :      0.2;2000133 :      2.1;2100259 :      0.1;2100278 :      0.5;2100048 :      0.6; 
2200119 :      0.5;2200026 :      0.1;2200103 :      1.1;2200200 :      1.0;2300030 :      0.5; 
2400078 :      0.7;2400067 :      0.3;2400111 :      0.4;2500093 :     17.9;2500064 :      1.4; 
2600083 :     14.1;2600152 :      0.2;2600597 :      2.0;2700280 :      1.8;2700125 :      0.9; 
2800043 :      0.4;2900115 :      0.6;2900197 :      0.6;2900290 :      1.4;3000204 :      7.4; 
3100267 :      0.4;3100100 :      1.6;3200050 :    612.0;3200119 :     18.0;3300009 :      0.3; 
3300022 :      0.2;3400183 :      0.9;3400003 :      0.4;3500060 :    430.0;3600053 :      0.2; 
3600304 :      2.3;3600406 :      2.2;3600202 :      0.4;3600769 :      3.6;3700001 :      0.3; 
3700029 :      0.3;3700016 :      0.4;3700006 :      1.3;3800153 :      2.0;3900290 :      1.2; 
3900585 :      1.9;3900514 :      1.0;3900870 :      0.6;3900952 :      1.2;4000033 :      2.7; 
4000036 :      0.6;4000074 :      7.3;4100167 :     17.2;4100008 :      4.9;4200541 :      2.1; 
4200094 :      0.7;4200593 :      0.9;4200664 :      5.0;4400001 :      0.3;4500321 :      0.2; 
4500183 :      0.3;4500264 :      1.4;4600084 :      0.3;4700133 :      1.2;4700005 :      3.4; 
4700026 :      0.4;4700273 :      0.7;4801135 :      2.6;4800056 :      0.4;4800749 :      2.8; 
4800131 :     23.6;4800234 :     91.4;4800153 :     10.3;4800119 :      5.0;4800213 :      4.8; 
4800176 :     16.3;4900183 :     27.4;4900084 :     72.0;5000010 :      0.1;5100093 :      0.4; 
5100081 :      0.4;5100450 :      1.2;5100408 :      1.2;5300598 :     17.7;5300198 :      0.8; 
5300215 :      8.7;5400246 :      0.4;5500121 :      0.8;5500039 :      1.2;5600082 :     14.4; 

Origin 	500051 
100369 :    125.0;100206 :     72.6;100044 :    422.0; 8811 :      1.7;400108 :    102.0; 
400026 :     87.4;400005 :     27.4;500051 :  89400.0;600146 :    720.0;600328 :     14.2; 
600966 :     11.1;600206 :    177.0;600582 :      2.6;600006 :     29.0;800297 :    144.0; 
800189 :    107.0;900011 :      4.2;900110 :     14.1;900057 :      0.7;1000016 :      2.3; 
1000008 :      1.5;1100005 :      1.5;1200019 :     58.6;1200378 :     52.0;1200047 :     24.4; 
1200252 :     54.6;1200117 :     61.2;1300279 :    348.0;1300358 :     93.8;1300026 :    129.0; 
1600015 :     24.0;1700799 :    840.0;1701370 :    170.0;1700235 :    210.0;1800477 :     75.4; 
1800419 :    137.0;1800073 :     30.2;1800135 :    196.0;1900443 :    226.0;2000571 :    174.0; 
2000304 :    128.0;2000133 :    296.0;2100259 :     17.9;2100278 :     47.6;2100048 :    348.0; 
2200119 :    400.0;2200026 :    304.0;2200103 :    780.0;2200200 :   2940.0;2300030 :     25.8; 
2400078 :     62.6;2400067 :      6.4;2400111 :     27.4;2500093 :     30.2;2500064 :     32.2; 
2600083 :    360.0;2600152 :     37.8;2600597 :    128.0;2700280 :    123.0;2700125 :    128.0; 
2800043 :  28400.0;2900115 :   1720.0;2900197 :   1020.0;2900290 :   6320.0;3000204 :     61.6; 
3100267 :    148.0;3100100 :    192.0;3200050 :     20.6;3200119 :      3.8;3300009 :     10.1; 
3300022 :      0.3;3400183 :     75.0;3400003 :     24.4;3500060 :     27.4;3600053 :     26.4; 
3600304 :     15.6;3600406 :     83.4;3600202 :      3.5;3600769 :     49.2;3700001 :     85.0; 
3700029 :     74.6;3700016 :     65.4;3700006 :    128.0;3800153 :    240.0;3900290 :    101.0; 
3900585 :    134.0;3900514 :     68.0;3900870 :     20.6;3900952 :    216.0;4000033 :    274.0; 
4000036 :    538.0;4000074 :    820.0;4100167 :    115.0;4100008 :     12.3;4200541 :    124.0; 
4200094 :     33.4;4200593 :     95.8;4200664 :    222.0;4400001 :      7.1;4500321 :     40.4; 
4500183 :     47.8;4500264 :     66.0;4600084 :      9.8;4700133 :   1510.0;4700005 :     72.0; 
4700026 :     63.2;4700273 :    706.0;4801135 :     89.4;4800056 :    180.0;4800749 :    132.0; 
4800131 :   1690.0;4800234 :    124.0;4800153 :    794.0;4800119 :    288.0;4800213 :    106.0; 
4800176 :   1960.0;4900183 :     55.2;4900084 :      3.4;5000010 :      0.9;5100093 :     66.0; 
5100081 :      8.5;5100450 :     23.0;5100408 :    108.0;5300598 :     64.0;5300198 :     22.0; 
5300215 :     32.2;5400246 :      7.4;5500121 :     90.4;5500039 :    404.0;5600082 :     42.0; 

Origin 	600146 
100369 :    169.0;100206 :     74.6;100044 :    258.0; 8811 :     26.4;400108 :   3800.0; 
400026 :    714.0;400005 :    546.0;500051 :    260.0;600146 : 236000.0;600328 :   1350.0; 
600966 :   9980.0;600206 :   7300.0;600582 :   1600.0;600006 :   8240.0;800297 :    844.0; 
800189 :    254.0;900011 :    242.0;900110 :     51.8;900057 :     14.5;1000016 :     37.0; 
1000008 :      4.2;1100005 :      7.4;1200019 :    153.0;1200378 :    420.0;1200047 :    113.0; 
1200252 :     71.4;1200117 :    270.0;1300279 :   1330.0;1300358 :     43.6;1300026 :    226.0; 
1600015 :    478.0;1700799 :   2660.0;1701370 :     19.4;1700235 :    156.0;1800477 :     60.0; 
1800419 :    392.0;1800073 :     63.2;1800135 :    210.0;1900443 :    346.0;2000571 :    276.0; 
2000304 :    117.0;2000133 :    108.0;2100259 :     74.0;2100278 :    272.0;2100048 :    346.0; 
2200119 :     21.6;2200026 :     14.3;2200103 :     74.6;2200200 :     62.0;2300030 :     52.6; 
2400078 :    109.0;2400067 :     38.2;2400111 :     25.4;2500093 :    232.0;2500064 :      7.4; 
2600083 :    890.0;2600152 :     49.0;2600597 :    103.0;2700280 :   1040.0;2700125 :    145.0; 
2800043 :    476.0;2900115 :    348.0;2900197 :    482.0;2900290 :    238.0;3000204 :    296.0; 
3100267 :    133.0;3100100 :     69.2;3200050 :   2600.0;3200119 :    392.0;3300009 :     17.2; 
3300022 :      7.5;3400183 :    864.0;3400003 :    272.0;3500060 :    612.0;3600053 :     44.0; 
3600304 :    157.0;3600406 :   1000.0;3600202 :     36.2;3600769 :    156.0;3700001 :    218.0; 
3700029 :     62.6;3700016 :     90.0;3700006 :    183.0;3800153 :     97.8;3900290 :    294.0; 
3900585 :    492.0;3900514 :    414.0;3900870 :     87.0;3900952 :    224.0;4000033 :    104.0; 
4000036 :     53.8;4000074 :    158.0;4100167 :    830.0;4100008 :    228.0;4200541 :    232.0; 
4200094 :    105.0;4200593 :    144.0;4200664 :    358.0;4400001 :     59.2;4500321 :     79.4; 
4500183 :    183.0;4500264 :     90.8;4600084 :     30.2;4700133 :    640.0;4700005 :    506.0; 
4700026 :    128.0;4700273 :    244.0;4801135 :     60.0;4800056 :     10.9;4800749 :      6.1; 
4800131 :   1090.0;4800234 :    342.0;4800153 :   1230.0;4800119 :    306.0;4800213 :    288.0; 
4800176 :    660.0;4900183 :   1290.0;4900084 :    276.0;5000010 :      7.9;5100093 :     39.8; 
5100081 :    140.0;5100450 :    230.0;5100408 :     71.4;5300598 :   1090.0;5300198 :    132.0; 
5300215 :    904.0;5400246 :     76.0;5500121 :    236.0;5500039 :    464.0;5600082 :    147.0; 

Origin 	600328 
100369 :      0.6;100206 :      1.4;100044 :      5.2; 8811 :      1.2;400108 :    111.0; 
400026 :     15.6;400005 :     30.2;500051 :      1.0;600146 :    640.0;600328 :  19200.0; 
600966 :     51.2;600206 :   5200.0;600582 :    612.0;600006 :   4220.0;800297 :     16.0; 
800189 :      6.9;900011 :      2.8;900110 :      0.9;900057 :      6.4;1000016 :      0.3; 
1000008 :      0.0;1100005 :      1.0;1200019 :      1.3;1200378 :      4.3;1200047 :      0.9; 
1200252 :      1.1;1200117 :     28.0;1300279 :     14.6;1300358 :      1.1;1300026 :      1.7; 
1600015 :     32.6;1700799 :     53.2;1701370 :      0.4;1700235 :     15.0;1800477 :      0.9; 
1800419 :      4.3;1800073 :      0.6;1800135 :      1.2;1900443 :     10.7;2000571 :     12.3; 
2000304 :      0.4;2000133 :      0.6;2100259 :      0.3;2100278 :      1.0;2100048 :      1.8; 
2200119 :      6.3;2200026 :      0.2;2200103 :      3.9;2200200 :      3.6;2300030 :      1.3; 
2400078 :     10.6;2400067 :      2.9;2400111 :      1.9;2500093 :      5.8;2500064 :      0.7; 
2600083 :     70.6;2600152 :      3.4;2600597 :     17.4;2700280 :     14.4;2700125 :      1.1; 
2800043 :      1.7;2900115 :      3.1;2900197 :     11.0;2900290 :     13.0;3000204 :     56.0; 
3100267 :      0.3;3100100 :      0.6;3200050 :     70.0;3200119 :    310.0;3300009 :      0.8; 
3300022 :      0.1;3400183 :     31.6;3400003 :      2.2;3500060 :     18.5;3600053 :      0.6; 
3600304 :     12.8;3600406 :     16.7;3600202 :     11.1;3600769 :     31.0;3700001 :      2.3; 
3700029 :      0.5;3700016 :     50.2;3700006 :      4.5;3800153 :      6.9;3900290 :     14.9; 
3900585 :     16.2;3900514 :      5.9;3900870 :      0.5;3900952 :      7.3;4000033 :      5.6; 
4000036 :      0.5;4000074 :      1.2;4100167 :    118.0;4100008 :     38.0;4200541 :      6.3; 
4200094 :      0.9;4200593 :      1.8;4200664 :     22.6;4400001 :      0.9;4500321 :      1.6; 
4500183 :     18.9;4500264 :      0.6;4600084 :      6.2;4700133 :      1.0;4700005 :      3.1; 
4700026 :      0.6;4700273 :      8.9;4801135 :      1.0;4800056 :      6.4;4800749 :      0.3; 
4800131 :     28.2;4800234 :      9.1;4800153 :     51.8;4800119 :     25.2;4800213 :      1.3; 
4800176 :     22.6;4900183 :     79.0;4900084 :      3.7;5000010 :      0.3;5100093 :      1.3; 
5100081 :      3.9;5100450 :      3.7;5100408 :      0.9;5300598 :    104.0;5300198 :      2.3; 
5300215 :     99.4;5400246 :      0.4;5500121 :      0.8;5500039 :      9.6;5600082 :      4.9; 

Origin 	600966 
100369 :      6.3;100206 :      5.4;100044 :      3.9; 8811 :      1.7;400108 :     74.0; 
400026 :     44.4;400005 :     23.2;500051 :     22.0;600146 :   3200.0;600328 :     54.6; 
600966 :  19400.0;600206 :    394.0;600582 :     81.0;600006 :    342.0;800297 :     61.6; 
800189 :      4.1;900011 :      4.9;900110 :      4.8;900057 :      5.5;1000016 :      4.6; 
1000008 :      0.6;1100005 :      3.5;1200019 :     10.8;1200378 :     41.0;1200047 :     17.7; 
1200252 :     16.9;1200117 :     24.4;1300279 :     72.0;1300358 :      2.1;1300026 :      9.2; 
1600015 :     14.8;1700799 :     53.8;1701370 :      1.4;1700235 :     12.5;1800477 :      1.6; 
1800419 :     20.6;1800073 :      1.5;1800135 :      7.6;1900443 :      4.6;2000571 :     24.4; 
2000304 :      1.0;2000133 :      1.5;2100259 :     15.4;2100278 :      5.9;2100048 :      6.4; 
2200119 :      0.6;2200026 :      0.2;2200103 :      2.3;2200200 :      2.6;2300030 :      4.5; 
2400078 :      9.8;2400067 :      8.6;2400111 :      1.2;2500093 :     57.2;2500064 :      5.0; 
2600083 :    173.0;2600152 :      6.2;2600597 :     16.7;2700280 :     11.3;2700125 :      8.1; 
2800043 :     18.1;2900115 :     11.5;2900197 :     22.6;2900290 :      8.6;3000204 :     45.6; 
3100267 :     10.4;3100100 :      1.2;3200050 :     90.0;3200119 :     25.2;3300009 :      5.2; 
3300022 :      1.5;3400183 :     38.2;3400003 :     10.1;3500060 :     10.6;3600053 :      5.4; 
3600304 :     29.6;3600406 :     49.6;3600202 :      1.9;3600769 :     10.2;3700001 :     13.6; 
3700029 :      3.6;3700016 :      6.8;3700006 :      8.3;3800153 :     13.3;3900290 :      5.5; 
3900585 :     11.3;3900514 :      9.8;3900870 :      3.0;3900952 :      7.9;4000033 :      4.4; 
4000036 :      3.5;4000074 :      4.1;4100167 :     28.4;4100008 :      9.7;4200541 :     15.4; 
4200094 :      9.7;4200593 :      6.7;4200664 :     16.9;4400001 :     15.0;4500321 :      4.5; 
4500183 :      1.4;4500264 :      4.5;4600084 :      1.7;4700133 :     55.8;4700005 :      2.7; 
4700026 :      6.4;4700273 :     12.8;4801135 :      5.2;4800056 :      0.6;4800749 :      4.0; 
4800131 :     98.8;4800234 :     45.0;4800153 :     61.6;4800119 :     70.6;4800213 :      9.7; 
4800176 :     37.8;4900183 :     47.0;4900084 :      3.1;5000010 :      1.0;5100093 :      5.9; 
5100081 :     12.6;5100450 :      5.0;5100408 :     24.6;5300598 :     49.2;5300198 :      1.4; 
5300215 :    139.0;5400246 :      9.0;5500121 :     10.1;5500039 :     11.8;5600082 :      1.4; 

Origin 	600206 
100369 :     34.2;100206 :     33.8;100044 :    147.0; 8811 :     17.3;400108 :    596.0; 
400026 :     60.6;400005 :     52.0;500051 :     34.0;600146 :   8300.0;600328 :   6320.0; 
600966 :    482.0;600206 :  96400.0;600582 :   1640.0;600006 :  14700.0;800297 :    286.0; 
800189 :     46.6;900011 :     20.0;900110 :    114.0;900057 :      7.7;1000016 :      5.8; 
1000008 :      0.5;1100005 :     13.0;1200019 :     41.2;1200378 :    210.0;1200047 :     30.2; 
1200252 :    116.0;1200117 :    310.0;1300279 :    324.0;1300358 :     23.2;1300026 :     42.4; 
1600015 :    302.0;1700799 :    468.0;1701370 :     22.0;1700235 :    163.0;1800477 :     31.0; 
1800419 :     73.0;1800073 :     83.0;1800135 :     15.0;1900443 :     53.2;2000571 :    160.0; 
2000304 :      5.2;2000133 :     22.4;2100259 :      6.9;2100278 :    119.0;2100048 :     89.0; 
2200119 :     29.4;2200026 :      2.8;2200103 :     48.0;2200200 :     14.8;2300030 :     76.0; 
2400078 :     93.4;2400067 :     12.5;2400111 :      3.1;2500093 :    216.0;2500064 :     23.2; 
2600083 :    646.0;2600152 :     23.2;2600597 :     78.0;2700280 :    268.0;2700125 :     52.6; 
2800043 :     30.2;2900115 :    165.0;2900197 :     30.8;2900290 :     13.5;3000204 :    240.0; 
3100267 :     34.8;3100100 :    115.0;3200050 :    174.0;3200119 :    780.0;3300009 :      4.3; 
3300022 :      1.9;3400183 :    264.0;3400003 :     52.6;3500060 :     47.4;3600053 :     13.8; 
3600304 :    123.0;3600406 :    159.0;3600202 :     78.0;3600769 :    113.0;3700001 :     32.6; 
3700029 :     18.9;3700016 :     37.4;3700006 :     30.4;3800153 :     78.6;3900290 :     26.2; 
3900585 :     63.6;3900514 :    218.0;3900870 :     16.9;3900952 :     89.0;4000033 :    104.0; 
4000036 :      2.6;4000074 :     98.8;4100167 :    672.0;4100008 :    187.0;4200541 :     38.8; 